FoamFile
{
    version     2.0;
    format      ascii;
    class       volScalarField;
    object      phiEold;
}
// * * * * * * * * * * * * * * * * * * * * * * * * * * * * * * * * * * * * * //

dimensions      [1 2 -3 0 0 -1 0];

internalField   uniform 0.1;

boundaryField
{
    "(inlet|outlet|walls)"
    {
        type            zeroGradient;
    }
    "intf.*"
    {
	type		fixedValue;
	value		uniform 0.1;
    }
    frontAndBack
    {
        type            empty;
    }
}

// ************************************************************************* //
