FoamFile
{
    version     2.0;
    format      ascii;
    class       volVectorField;
    object      B;
}
// * * * * * * * * * * * * * * * * * * * * * * * * * * * * * * * * * * * * * //

dimensions      [1 0 -2 0 0 -1 0];

internalField   uniform (0 1 0);

boundaryField
{
    inout
    {
        type            empty;
    }
    top
    {
        type            zeroGradient;
        value           $internalField;
    }
    bottom
    {
        type            zeroGradient;
        value           $internalField;
    }
    frontback
    {
        type            empty;
    }
}

// ************************************************************************* //
