/*--------------------------------*- C++ -*----------------------------------*\
| =========                 |                                                 |
| \\      /  F ield         | OpenFOAM: The Open Source CFD Toolbox           |
|  \\    /   O peration     | Version:  2112                                  |
|   \\  /    A nd           | Website:  www.openfoam.com                      |
|    \\/     M anipulation  |                                                 |
\*---------------------------------------------------------------------------*/
FoamFile
{
    version     2.0;
    format      ascii;
    arch        "LSB;label=32;scalar=64";
    class       volScalarField;
    location    "1";
    object      p;
}
// * * * * * * * * * * * * * * * * * * * * * * * * * * * * * * * * * * * * * //

dimensions      [0 2 -2 0 0 0 0];

internalField   nonuniform List<scalar> 
1681
(
100320.418101
100298.673322
100293.407808
100284.851834
100277.754328
100269.992506
100262.489341
100254.846698
100247.259152
100239.642796
100232.03901
100224.429219
100216.822283
100209.214053
100201.606457
100193.998574
100186.390829
100178.78302
100171.175241
100163.567449
100155.959662
100148.351873
100140.744085
100133.136297
100125.528508
100117.92072
100110.312931
100102.705143
100095.097355
100087.489566
100079.881778
100072.27399
100064.666201
100057.058413
100049.450624
100041.842836
100034.235048
100026.627259
100019.019471
100011.411683
100003.803894
100318.633365
100298.959394
100293.536589
100284.874495
100277.762598
100269.992063
100262.4892
100254.84613
100247.259025
100239.642685
100232.039002
100224.429207
100216.822286
100209.214052
100201.606458
100193.998573
100186.390829
100178.78302
100171.175242
100163.567449
100155.959662
100148.351873
100140.744085
100133.136297
100125.528508
100117.92072
100110.312931
100102.705143
100095.097355
100087.489566
100079.881778
100072.27399
100064.666201
100057.058413
100049.450624
100041.842836
100034.235048
100026.627259
100019.019471
100011.411683
100003.803894
100317.080258
100299.116899
100293.635841
100284.888578
100277.773853
100269.991032
100262.489966
100254.845436
100247.259075
100239.642527
100232.039023
100224.42918
100216.822295
100209.214048
100201.60646
100193.998573
100186.39083
100178.78302
100171.175242
100163.567449
100155.959662
100148.351873
100140.744085
100133.136297
100125.528508
100117.92072
100110.312931
100102.705143
100095.097355
100087.489566
100079.881778
100072.27399
100064.666201
100057.058413
100049.450624
100041.842836
100034.235048
100026.627259
100019.019471
100011.411683
100003.803894
100315.846514
100299.195647
100293.684901
100284.899361
100277.783901
100269.990699
100262.491047
100254.844937
100247.259185
100239.64239
100232.039047
100224.429154
100216.822303
100209.214044
100201.606463
100193.998572
100186.39083
100178.78302
100171.175242
100163.567448
100155.959662
100148.351873
100140.744085
100133.136297
100125.528508
100117.92072
100110.312931
100102.705143
100095.097355
100087.489566
100079.881778
100072.27399
100064.666201
100057.058413
100049.450624
100041.842836
100034.235048
100026.627259
100019.019471
100011.411683
100003.803894
100314.790032
100299.244702
100293.703732
100284.910423
100277.792704
100269.991177
100262.49221
100254.844618
100247.259306
100239.642278
100232.039068
100224.42913
100216.822309
100209.214039
100201.606464
100193.998571
100186.390831
100178.783019
100171.175242
100163.567448
100155.959662
100148.351873
100140.744085
100133.136297
100125.528508
100117.92072
100110.312931
100102.705143
100095.097355
100087.489566
100079.881778
100072.27399
100064.666201
100057.058413
100049.450624
100041.842836
100034.235048
100026.627259
100019.019471
100011.411683
100003.803894
100313.862367
100299.275191
100293.705951
100284.922076
100277.800677
100269.992272
100262.493442
100254.844431
100247.259436
100239.642182
100232.039085
100224.429108
100216.822314
100209.214035
100201.606466
100193.99857
100186.390831
100178.783019
100171.175242
100163.567448
100155.959662
100148.351873
100140.744085
100133.136297
100125.528508
100117.92072
100110.312931
100102.705143
100095.097355
100087.489566
100079.881778
100072.27399
100064.666201
100057.058413
100049.450624
100041.842836
100034.235048
100026.627259
100019.019471
100011.411683
100003.803894
100313.054737
100299.289746
100293.697573
100284.934034
100277.808019
100269.993857
100262.49474
100254.844348
100247.259576
100239.642099
100232.039101
100224.429086
100216.822318
100209.214031
100201.606467
100193.99857
100186.390831
100178.783019
100171.175242
100163.567448
100155.959662
100148.351873
100140.744085
100133.136296
100125.528508
100117.92072
100110.312931
100102.705143
100095.097355
100087.489566
100079.881778
100072.27399
100064.666201
100057.058413
100049.450624
100041.842836
100034.235048
100026.627259
100019.019471
100011.411683
100003.803894
100312.357153
100299.291718
100293.682299
100284.946142
100277.814835
100269.99585
100262.496086
100254.844356
100247.259722
100239.642027
100232.039114
100224.429065
100216.822321
100209.214027
100201.606468
100193.998569
100186.390832
100178.783019
100171.175242
100163.567448
100155.959663
100148.351873
100140.744085
100133.136296
100125.528508
100117.92072
100110.312931
100102.705143
100095.097355
100087.489566
100079.881778
100072.27399
100064.666201
100057.058413
100049.450624
100041.842836
100034.235048
100026.627259
100019.019471
100011.411683
100003.803894
100311.756685
100299.284471
100293.662993
100284.95828
100277.821203
100269.998173
100262.497457
100254.844439
100247.259872
100239.641965
100232.039126
100224.429045
100216.822324
100209.214023
100201.606469
100193.998568
100186.390832
100178.783019
100171.175242
100163.567448
100155.959663
100148.351873
100140.744085
100133.136296
100125.528508
100117.92072
100110.312931
100102.705143
100095.097355
100087.489566
100079.881778
100072.27399
100064.666201
100057.058413
100049.450624
100041.842836
100034.235048
100026.627259
100019.019471
100011.411683
100003.803894
100311.241262
100299.270697
100293.641748
100284.970285
100277.827174
100270.000739
100262.498832
100254.844582
100247.260023
100239.641912
100232.039136
100224.429026
100216.822326
100209.214019
100201.60647
100193.998568
100186.390832
100178.783019
100171.175242
100163.567448
100155.959663
100148.351873
100140.744085
100133.136296
100125.528508
100117.92072
100110.312931
100102.705143
100095.097355
100087.489566
100079.881778
100072.27399
100064.666201
100057.058413
100049.450624
100041.842836
100034.235048
100026.627259
100019.019471
100011.411683
100003.803894
100310.800517
100299.252524
100293.620007
100284.981964
100277.832771
100270.003459
100262.500189
100254.844773
100247.260171
100239.641867
100232.039145
100224.429008
100216.822327
100209.214016
100201.606471
100193.998567
100186.390833
100178.783019
100171.175242
100163.567448
100155.959663
100148.351873
100140.744085
100133.136296
100125.528508
100117.92072
100110.312931
100102.705143
100095.097355
100087.489566
100079.881778
100072.27399
100064.666201
100057.058413
100049.450624
100041.842836
100034.235048
100026.627259
100019.019471
100011.411683
100003.803894
100310.425508
100299.23171
100293.598763
100284.993119
100277.837989
100270.006246
100262.501506
100254.844996
100247.260314
100239.641828
100232.039151
100224.428992
100216.822328
100209.214012
100201.606472
100193.998567
100186.390833
100178.783019
100171.175242
100163.567448
100155.959663
100148.351873
100140.744085
100133.136296
100125.528508
100117.92072
100110.312931
100102.705143
100095.097355
100087.489566
100079.881778
100072.27399
100064.666201
100057.058413
100049.450624
100041.842836
100034.235048
100026.627259
100019.019471
100011.411683
100003.803894
100310.108508
100299.209721
100293.578705
100285.003567
100277.842806
100270.009011
100262.502761
100254.845239
100247.26045
100239.641795
100232.039157
100224.428976
100216.822328
100209.214009
100201.606472
100193.998566
100186.390833
100178.783019
100171.175242
100163.567448
100155.959663
100148.351873
100140.744085
100133.136296
100125.528508
100117.92072
100110.312931
100102.705143
100095.097355
100087.489566
100079.881778
100072.27399
100064.666201
100057.058413
100049.450624
100041.842836
100034.235048
100026.627259
100019.019471
100011.411683
100003.803894
100309.842904
100299.187786
100293.560317
100285.013142
100277.847189
100270.011671
100262.503931
100254.845488
100247.260576
100239.641768
100232.039161
100224.428962
100216.822328
100209.214006
100201.606473
100193.998566
100186.390833
100178.783018
100171.175242
100163.567448
100155.959663
100148.351873
100140.744085
100133.136296
100125.528508
100117.92072
100110.312931
100102.705143
100095.097355
100087.489566
100079.881778
100072.27399
100064.666201
100057.058413
100049.450624
100041.842836
100034.235048
100026.627259
100019.019471
100011.411683
100003.803894
100309.623114
100299.166921
100293.543935
100285.021703
100277.851099
100270.014148
100262.504995
100254.845731
100247.26069
100239.641746
100232.039164
100224.428949
100216.822328
100209.214004
100201.606473
100193.998565
100186.390833
100178.783018
100171.175242
100163.567448
100155.959663
100148.351873
100140.744085
100133.136296
100125.528508
100117.92072
100110.312931
100102.705143
100095.097355
100087.489566
100079.881778
100072.27399
100064.666201
100057.058413
100049.450624
100041.842836
100034.235048
100026.627259
100019.019471
100011.411683
100003.803894
100309.444495
100299.147964
100293.529792
100285.029131
100277.854493
100270.01637
100262.505933
100254.845958
100247.26079
100239.641728
100232.039166
100224.428938
100216.822327
100209.214001
100201.606473
100193.998565
100186.390833
100178.783018
100171.175243
100163.567448
100155.959663
100148.351873
100140.744085
100133.136296
100125.528508
100117.92072
100110.312931
100102.705143
100095.097355
100087.489566
100079.881778
100072.27399
100064.666201
100057.058413
100049.450624
100041.842836
100034.235048
100026.627259
100019.019471
100011.411683
100003.803894
100309.303262
100299.131591
100293.518052
100285.035329
100277.857331
100270.018277
100262.506727
100254.846158
100247.260874
100239.641714
100232.039167
100224.428929
100216.822327
100209.214
100201.606473
100193.998565
100186.390834
100178.783018
100171.175243
100163.567448
100155.959663
100148.351873
100140.744085
100133.136296
100125.528508
100117.92072
100110.312931
100102.705143
100095.097355
100087.489566
100079.881778
100072.27399
100064.666201
100057.058413
100049.450624
100041.842836
100034.235048
100026.627259
100019.019471
100011.411683
100003.803894
100309.196418
100299.118336
100293.508827
100285.040223
100277.85958
100270.019816
100262.507361
100254.846322
100247.260942
100239.641704
100232.039168
100224.428922
100216.822327
100209.213998
100201.606473
100193.998564
100186.390834
100178.783018
100171.175243
100163.567448
100155.959663
100148.351873
100140.744085
100133.136296
100125.528508
100117.92072
100110.312931
100102.705143
100095.097355
100087.489566
100079.881778
100072.27399
100064.666201
100057.058413
100049.450624
100041.842836
100034.235048
100026.627259
100019.019471
100011.411683
100003.803894
100309.121694
100299.108602
100293.502193
100285.043758
100277.861208
100270.020945
100262.507824
100254.846445
100247.260991
100239.641697
100232.039169
100224.428917
100216.822326
100209.213997
100201.606474
100193.998564
100186.390834
100178.783018
100171.175243
100163.567448
100155.959663
100148.351873
100140.744085
100133.136296
100125.528508
100117.92072
100110.312931
100102.705143
100095.097355
100087.489566
100079.881778
100072.27399
100064.666201
100057.058413
100049.450624
100041.842836
100034.235048
100026.627259
100019.019471
100011.411683
100003.803894
100309.0775
100299.102667
100293.498198
100285.045894
100277.862193
100270.021635
100262.508105
100254.84652
100247.261021
100239.641693
100232.039169
100224.428913
100216.822326
100209.213996
100201.606474
100193.998564
100186.390834
100178.783018
100171.175243
100163.567448
100155.959663
100148.351873
100140.744085
100133.136296
100125.528508
100117.92072
100110.312931
100102.705143
100095.097355
100087.489566
100079.881778
100072.27399
100064.666201
100057.058413
100049.450624
100041.842836
100034.235048
100026.627259
100019.019471
100011.411683
100003.803894
100309.062877
100299.100676
100293.496864
100285.04661
100277.862523
100270.021866
100262.508199
100254.846546
100247.26103
100239.641691
100232.03917
100224.428912
100216.822326
100209.213996
100201.606474
100193.998564
100186.390834
100178.783018
100171.175243
100163.567448
100155.959663
100148.351873
100140.744085
100133.136296
100125.528508
100117.92072
100110.312931
100102.705143
100095.097355
100087.489566
100079.881778
100072.27399
100064.666201
100057.058413
100049.450624
100041.842836
100034.235048
100026.627259
100019.019471
100011.411683
100003.803894
100309.077499
100299.102667
100293.498198
100285.045894
100277.862193
100270.021635
100262.508105
100254.84652
100247.261021
100239.641693
100232.039169
100224.428913
100216.822326
100209.213996
100201.606474
100193.998564
100186.390834
100178.783018
100171.175243
100163.567448
100155.959663
100148.351873
100140.744085
100133.136296
100125.528508
100117.92072
100110.312931
100102.705143
100095.097355
100087.489566
100079.881778
100072.27399
100064.666201
100057.058413
100049.450624
100041.842836
100034.235048
100026.627259
100019.019471
100011.411683
100003.803894
100309.121694
100299.108602
100293.502193
100285.043758
100277.861207
100270.020945
100262.507824
100254.846445
100247.260991
100239.641697
100232.039169
100224.428917
100216.822326
100209.213997
100201.606474
100193.998564
100186.390834
100178.783018
100171.175243
100163.567448
100155.959663
100148.351873
100140.744085
100133.136296
100125.528508
100117.92072
100110.312931
100102.705143
100095.097355
100087.489566
100079.881778
100072.27399
100064.666201
100057.058413
100049.450624
100041.842836
100034.235048
100026.627259
100019.019471
100011.411683
100003.803894
100309.196418
100299.118336
100293.508827
100285.040223
100277.85958
100270.019816
100262.507361
100254.846322
100247.260942
100239.641704
100232.039169
100224.428922
100216.822327
100209.213998
100201.606473
100193.998564
100186.390834
100178.783018
100171.175243
100163.567448
100155.959663
100148.351873
100140.744085
100133.136296
100125.528508
100117.92072
100110.312931
100102.705143
100095.097355
100087.489566
100079.881778
100072.27399
100064.666201
100057.058413
100049.450624
100041.842836
100034.235048
100026.627259
100019.019471
100011.411683
100003.803894
100309.303262
100299.131591
100293.518053
100285.035329
100277.857331
100270.018277
100262.506727
100254.846158
100247.260874
100239.641715
100232.039167
100224.428929
100216.822327
100209.214
100201.606473
100193.998565
100186.390834
100178.783018
100171.175243
100163.567448
100155.959663
100148.351873
100140.744085
100133.136296
100125.528508
100117.92072
100110.312931
100102.705143
100095.097355
100087.489566
100079.881778
100072.27399
100064.666201
100057.058413
100049.450624
100041.842836
100034.235048
100026.627259
100019.019471
100011.411683
100003.803894
100309.444494
100299.147964
100293.529793
100285.029131
100277.854492
100270.01637
100262.505933
100254.845958
100247.26079
100239.641728
100232.039166
100224.428938
100216.822327
100209.214001
100201.606473
100193.998565
100186.390833
100178.783018
100171.175243
100163.567448
100155.959663
100148.351873
100140.744085
100133.136296
100125.528508
100117.92072
100110.312931
100102.705143
100095.097355
100087.489566
100079.881778
100072.27399
100064.666201
100057.058413
100049.450624
100041.842836
100034.235048
100026.627259
100019.019471
100011.411683
100003.803894
100309.623113
100299.166921
100293.543935
100285.021703
100277.851098
100270.014148
100262.504995
100254.845731
100247.26069
100239.641746
100232.039164
100224.428949
100216.822328
100209.214004
100201.606473
100193.998565
100186.390833
100178.783018
100171.175242
100163.567448
100155.959663
100148.351873
100140.744085
100133.136296
100125.528508
100117.92072
100110.312931
100102.705143
100095.097355
100087.489566
100079.881778
100072.27399
100064.666201
100057.058413
100049.450624
100041.842836
100034.235048
100026.627259
100019.019471
100011.411683
100003.803894
100309.842904
100299.187786
100293.560318
100285.013142
100277.847189
100270.011671
100262.503931
100254.845488
100247.260576
100239.641768
100232.039161
100224.428962
100216.822328
100209.214006
100201.606473
100193.998566
100186.390833
100178.783018
100171.175242
100163.567448
100155.959663
100148.351873
100140.744085
100133.136296
100125.528508
100117.92072
100110.312931
100102.705143
100095.097355
100087.489566
100079.881778
100072.27399
100064.666201
100057.058413
100049.450624
100041.842836
100034.235048
100026.627259
100019.019471
100011.411683
100003.803894
100310.108507
100299.209722
100293.578706
100285.003567
100277.842806
100270.009011
100262.502761
100254.845239
100247.26045
100239.641795
100232.039157
100224.428976
100216.822328
100209.214009
100201.606472
100193.998566
100186.390833
100178.783019
100171.175242
100163.567448
100155.959663
100148.351873
100140.744085
100133.136296
100125.528508
100117.92072
100110.312931
100102.705143
100095.097355
100087.489566
100079.881778
100072.27399
100064.666201
100057.058413
100049.450624
100041.842836
100034.235048
100026.627259
100019.019471
100011.411683
100003.803894
100310.425507
100299.23171
100293.598763
100284.993119
100277.837989
100270.006246
100262.501506
100254.844996
100247.260314
100239.641828
100232.039151
100224.428992
100216.822328
100209.214012
100201.606472
100193.998567
100186.390833
100178.783019
100171.175242
100163.567448
100155.959663
100148.351873
100140.744085
100133.136296
100125.528508
100117.92072
100110.312931
100102.705143
100095.097355
100087.489566
100079.881778
100072.27399
100064.666201
100057.058413
100049.450624
100041.842836
100034.235048
100026.627259
100019.019471
100011.411683
100003.803894
100310.800516
100299.252525
100293.620007
100284.981963
100277.832771
100270.003459
100262.500189
100254.844773
100247.260171
100239.641867
100232.039145
100224.429008
100216.822327
100209.214016
100201.606471
100193.998567
100186.390833
100178.783019
100171.175242
100163.567448
100155.959663
100148.351873
100140.744085
100133.136296
100125.528508
100117.92072
100110.312931
100102.705143
100095.097355
100087.489566
100079.881778
100072.27399
100064.666201
100057.058413
100049.450624
100041.842836
100034.235048
100026.627259
100019.019471
100011.411683
100003.803894
100311.241261
100299.270697
100293.641749
100284.970285
100277.827174
100270.000739
100262.498832
100254.844582
100247.260023
100239.641912
100232.039136
100224.429026
100216.822326
100209.214019
100201.60647
100193.998568
100186.390832
100178.783019
100171.175242
100163.567448
100155.959663
100148.351873
100140.744085
100133.136296
100125.528508
100117.92072
100110.312931
100102.705143
100095.097355
100087.489566
100079.881778
100072.27399
100064.666201
100057.058413
100049.450624
100041.842836
100034.235048
100026.627259
100019.019471
100011.411683
100003.803894
100311.756684
100299.284472
100293.662994
100284.95828
100277.821203
100269.998173
100262.497457
100254.844439
100247.259872
100239.641965
100232.039126
100224.429045
100216.822324
100209.214023
100201.606469
100193.998568
100186.390832
100178.783019
100171.175242
100163.567448
100155.959663
100148.351873
100140.744085
100133.136296
100125.528508
100117.92072
100110.312931
100102.705143
100095.097355
100087.489566
100079.881778
100072.27399
100064.666201
100057.058413
100049.450624
100041.842836
100034.235048
100026.627259
100019.019471
100011.411683
100003.803894
100312.357152
100299.291719
100293.682299
100284.946142
100277.814835
100269.99585
100262.496086
100254.844356
100247.259722
100239.642027
100232.039114
100224.429065
100216.822321
100209.214027
100201.606468
100193.998569
100186.390832
100178.783019
100171.175242
100163.567448
100155.959663
100148.351873
100140.744085
100133.136296
100125.528508
100117.92072
100110.312931
100102.705143
100095.097355
100087.489566
100079.881778
100072.27399
100064.666201
100057.058413
100049.450624
100041.842836
100034.235048
100026.627259
100019.019471
100011.411683
100003.803894
100313.054736
100299.289747
100293.697573
100284.934034
100277.808019
100269.993857
100262.49474
100254.844348
100247.259576
100239.642099
100232.039101
100224.429086
100216.822318
100209.214031
100201.606467
100193.99857
100186.390831
100178.783019
100171.175242
100163.567448
100155.959662
100148.351873
100140.744085
100133.136296
100125.528508
100117.92072
100110.312931
100102.705143
100095.097355
100087.489566
100079.881778
100072.27399
100064.666201
100057.058413
100049.450624
100041.842836
100034.235048
100026.627259
100019.019471
100011.411683
100003.803894
100313.862366
100299.275191
100293.705951
100284.922076
100277.800677
100269.992272
100262.493441
100254.844431
100247.259436
100239.642182
100232.039085
100224.429108
100216.822314
100209.214035
100201.606466
100193.99857
100186.390831
100178.783019
100171.175242
100163.567448
100155.959662
100148.351873
100140.744085
100133.136297
100125.528508
100117.92072
100110.312931
100102.705143
100095.097355
100087.489566
100079.881778
100072.27399
100064.666201
100057.058413
100049.450624
100041.842836
100034.235048
100026.627259
100019.019471
100011.411683
100003.803894
100314.790032
100299.244702
100293.703732
100284.910423
100277.792705
100269.991177
100262.49221
100254.844619
100247.259306
100239.642278
100232.039068
100224.42913
100216.822309
100209.214039
100201.606464
100193.998571
100186.390831
100178.783019
100171.175242
100163.567448
100155.959662
100148.351873
100140.744085
100133.136297
100125.528508
100117.92072
100110.312931
100102.705143
100095.097355
100087.489566
100079.881778
100072.27399
100064.666201
100057.058413
100049.450624
100041.842836
100034.235048
100026.627259
100019.019471
100011.411683
100003.803894
100315.846514
100299.195647
100293.684901
100284.899361
100277.783901
100269.990699
100262.491047
100254.844937
100247.259185
100239.64239
100232.039047
100224.429154
100216.822303
100209.214044
100201.606463
100193.998572
100186.39083
100178.78302
100171.175242
100163.567448
100155.959662
100148.351873
100140.744085
100133.136297
100125.528508
100117.92072
100110.312931
100102.705143
100095.097355
100087.489566
100079.881778
100072.27399
100064.666201
100057.058413
100049.450624
100041.842836
100034.235048
100026.627259
100019.019471
100011.411683
100003.803894
100317.080257
100299.1169
100293.635841
100284.888578
100277.773853
100269.991032
100262.489966
100254.845436
100247.259075
100239.642527
100232.039023
100224.42918
100216.822295
100209.214048
100201.60646
100193.998573
100186.39083
100178.78302
100171.175242
100163.567449
100155.959662
100148.351873
100140.744085
100133.136297
100125.528508
100117.92072
100110.312931
100102.705143
100095.097355
100087.489566
100079.881778
100072.27399
100064.666201
100057.058413
100049.450624
100041.842836
100034.235048
100026.627259
100019.019471
100011.411683
100003.803894
100318.633365
100298.959395
100293.536588
100284.874495
100277.762599
100269.992063
100262.4892
100254.84613
100247.259025
100239.642685
100232.039002
100224.429207
100216.822286
100209.214052
100201.606458
100193.998573
100186.390829
100178.78302
100171.175242
100163.567449
100155.959662
100148.351873
100140.744085
100133.136297
100125.528508
100117.92072
100110.312931
100102.705143
100095.097355
100087.489566
100079.881778
100072.27399
100064.666201
100057.058413
100049.450624
100041.842836
100034.235048
100026.627259
100019.019471
100011.411683
100003.803894
100320.418101
100298.673322
100293.407807
100284.851834
100277.754328
100269.992506
100262.489341
100254.846698
100247.259152
100239.642796
100232.03901
100224.429219
100216.822283
100209.214053
100201.606457
100193.998574
100186.390829
100178.78302
100171.175241
100163.567449
100155.959662
100148.351873
100140.744085
100133.136297
100125.528508
100117.92072
100110.312931
100102.705143
100095.097355
100087.489566
100079.881778
100072.27399
100064.666201
100057.058413
100049.450624
100041.842836
100034.235048
100026.627259
100019.019471
100011.411683
100003.803894
)
;

boundaryField
{
    in
    {
        type            zeroGradient;
    }
    out
    {
        type            fixedValue;
        value           uniform 100000;
    }
    top
    {
        type            zeroGradient;
    }
    bottom
    {
        type            zeroGradient;
    }
    frontback
    {
        type            empty;
    }
}


// ************************************************************************* //
