/*--------------------------------*- C++ -*----------------------------------*\
| =========                 |                                                 |
| \\      /  F ield         | OpenFOAM: The Open Source CFD Toolbox           |
|  \\    /   O peration     | Version:  2112                                  |
|   \\  /    A nd           | Website:  www.openfoam.com                      |
|    \\/     M anipulation  |                                                 |
\*---------------------------------------------------------------------------*/
FoamFile
{
    version     2.0;
    format      ascii;
    arch        "LSB;label=32;scalar=64";
    class       volScalarField;
    location    "1";
    object      phiE;
}
// * * * * * * * * * * * * * * * * * * * * * * * * * * * * * * * * * * * * * //

dimensions      [1 2 -3 0 0 -1 0];

internalField   nonuniform List<scalar> 
1681
(
0.493914888506
0.493914811824
0.493914815625
0.493914765963
0.493914810436
0.493914811638
0.493914967925
0.493914961742
0.493914949086
0.49391494148
0.493915195739
0.493915182789
0.493915157368
0.493915035178
0.493915004383
0.493914970245
0.493914788717
0.49391475166
0.493914562801
0.493914541643
0.493914531632
0.493914524235
0.49391448601
0.493914472332
0.493914235117
0.493914229584
0.49391423248
0.493914215344
0.493913744028
0.493913723022
0.493913716372
0.493913682176
0.493913092126
0.493913034423
0.493912750004
0.493912702465
0.49391243723
0.493912386515
0.493912056478
0.493912054304
0.493912243072
0.481718806728
0.481718528985
0.481718539316
0.481718497827
0.481718523603
0.481718519385
0.481718620376
0.481718596296
0.481718557825
0.481718524781
0.481718678517
0.48171863039
0.481718557336
0.481718404644
0.481718315017
0.481718218487
0.481718016324
0.481717917311
0.481717725951
0.481717669437
0.481717640007
0.481717619208
0.48171758313
0.481717553441
0.481717378383
0.481717373236
0.481717383397
0.481717349385
0.481716992984
0.481716951647
0.481716934066
0.481716852715
0.481716370347
0.481716232877
0.481715965244
0.481715843824
0.481715585494
0.481715456866
0.481715172081
0.481715174823
0.481715756977
0.46952282114
0.469522421219
0.46952243586
0.469522399198
0.469522409594
0.469522395629
0.469522450004
0.469522404585
0.469522339396
0.46952227493
0.469522342893
0.469522253909
0.469522133612
0.469521945144
0.469521798459
0.469521644125
0.469521414058
0.469521262337
0.469521060807
0.469520974339
0.469520926935
0.469520895655
0.469520861563
0.469520827181
0.469520703201
0.46952070799
0.469520728772
0.46952069461
0.46952042966
0.469520385315
0.469520362052
0.46952025406
0.469519851256
0.469519664003
0.469519404463
0.469519229548
0.469518969324
0.469518784154
0.469518529316
0.469518533519
0.469519434595
0.45732696863
0.457326508793
0.45732652543
0.457326491592
0.45732648849
0.457326462441
0.457326476247
0.457326407258
0.457326314117
0.45732621487
0.45732620748
0.457326074265
0.457325906172
0.457325678416
0.457325476541
0.457325268266
0.457325006334
0.457324809037
0.457324592981
0.457324480816
0.457324417513
0.457324379193
0.457324348581
0.457324319214
0.457324239812
0.457324261994
0.457324298237
0.45732427831
0.457324090026
0.457324055709
0.457324033732
0.457323917035
0.457323576521
0.457323362926
0.457323108843
0.45732289806
0.457322632906
0.457322408762
0.457322174579
0.457322174183
0.457323280659
0.445131239107
0.445130763547
0.4451307803
0.445130748088
0.445130732453
0.445130692996
0.445130670569
0.44513057662
0.445130454218
0.445130318341
0.445130243181
0.445130064013
0.445129847778
0.445129578643
0.445129323724
0.445129064909
0.445128769459
0.445128532079
0.445128299331
0.445128164943
0.445128088099
0.445128045883
0.445128021104
0.445128004039
0.445127965535
0.44512801085
0.445128067873
0.445128072923
0.44512795211
0.445127937524
0.445127924182
0.445127812582
0.445127524131
0.445127301509
0.445127053685
0.44512682095
0.445126551278
0.44512630136
0.445126082245
0.445126072375
0.44512728527
0.432935613722
0.432935151981
0.432935167566
0.432935136266
0.432935108578
0.432935055012
0.432934999621
0.432934879968
0.432934727233
0.432934553912
0.432934416795
0.432934191159
0.432933926939
0.432933615469
0.432933309898
0.43293300367
0.432932674555
0.432932401451
0.432932151249
0.43293199756
0.432931909567
0.432931866183
0.43293184981
0.432931850266
0.432931850589
0.432931923376
0.432932006187
0.432932043834
0.432931984699
0.432931997004
0.432931999165
0.432931902926
0.432931660662
0.432931441613
0.432931202554
0.432930958664
0.432930686689
0.432930420726
0.432930213141
0.432930190546
0.432931433801
0.420740073727
0.420739644447
0.420739658137
0.420739627322
0.420739587866
0.420739519911
0.420739434183
0.420739288615
0.420739104903
0.420738894103
0.420738699777
0.420738428064
0.420738116581
0.420737762732
0.42073740909
0.42073705843
0.420736696459
0.420736391231
0.420736123698
0.420735953244
0.420735856376
0.420735814132
0.420735808569
0.420735830152
0.42073586805
0.420735971478
0.420736084312
0.420736159722
0.420736158425
0.420736202808
0.420736226395
0.420736153001
0.420735953621
0.420735747242
0.420735520084
0.420735273385
0.420735002091
0.420734727254
0.420734528742
0.420734491498
0.420735710364
0.408544602638
0.40854421667
0.408544228176
0.408544197582
0.408544146618
0.408544064306
0.408543950494
0.408543779248
0.408543564423
0.408543316728
0.408543069329
0.408542752631
0.408542395152
0.408541999621
0.408541600643
0.40854120847
0.408540815061
0.408540480812
0.408540196628
0.408540011655
0.408539907997
0.408539868808
0.408539876085
0.408539921154
0.40853999571
0.408540131945
0.408540278058
0.408540394484
0.408540448224
0.408540528293
0.408540578093
0.408540532859
0.408540374487
0.408540187267
0.408539975155
0.408539732083
0.408539464601
0.408539186212
0.408538994907
0.408538942053
0.408540099222
0.396349186508
0.396348849272
0.396348858609
0.396348828063
0.396348765913
0.396348669514
0.396348529669
0.396348333362
0.396348087807
0.396347804308
0.396347507644
0.396347147613
0.396346745897
0.396346309993
0.396345868544
0.396345437771
0.396345014735
0.396344654251
0.396344354449
0.396344156982
0.396344048396
0.396344013823
0.39634403551
0.396344105454
0.396344215793
0.396344386126
0.396344567741
0.396344726942
0.396344833384
0.39634495145
0.396345031073
0.396345017613
0.396344899075
0.39634473554
0.396344541284
0.396344306765
0.396344046033
0.39634376808
0.396343582479
0.396343513736
0.396344585402
0.384153813678
0.384153526885
0.384153534252
0.384153503627
0.384153430714
0.384153320692
0.384153156761
0.384152936332
0.384152660921
0.38415234313
0.384152000858
0.384151599598
0.38415115584
0.384150681378
0.384150200448
0.384149734017
0.384149283431
0.384148899301
0.384148585139
0.384148377033
0.384148265154
0.384148236433
0.384148273621
0.384148369068
0.384148514191
0.384148719145
0.384148937491
0.384149140038
0.384149296964
0.384149454254
0.384149566182
0.384149586749
0.384149507129
0.384149370299
0.384149196206
0.384148973957
0.384148722539
0.384148448039
0.384148266912
0.384148182497
0.384149154964
0.371958474413
0.371958237306
0.371958242991
0.371958212187
0.371958129042
0.37195800602
0.371957819909
0.371957576575
0.371957272611
0.371956922396
0.371956538127
0.371956098117
0.371955614892
0.371955104113
0.37195458681
0.371954087722
0.371953611851
0.37195320655
0.371952879432
0.371952662401
0.371952548651
0.371952526722
0.371952580051
0.371952701017
0.371952879711
0.37195311913
0.371953374526
0.371953620033
0.371953825143
0.371954021956
0.371954167641
0.371954223385
0.371954181758
0.371954073476
0.371953921287
0.371953714041
0.371953474055
0.371953205305
0.371953027667
0.37195292816
0.371953795112
0.35976316058
0.359762970812
0.359762975125
0.359762944057
0.359762851312
0.359762716045
0.359762509654
0.359762244866
0.359761914025
0.359761533557
0.359761110911
0.359760634945
0.359760115152
0.35975957066
0.35975902021
0.359758491533
0.359757992787
0.359757568728
0.359757230159
0.359757005802
0.359756891405
0.359756876944
0.359756946641
0.359757092644
0.359757303447
0.359757576571
0.35975786853
0.359758155831
0.359758406634
0.359758642477
0.359758822446
0.359758913611
0.35975890889
0.359758830066
0.359758700953
0.359758510632
0.359758283738
0.359758022488
0.359757847588
0.359757733845
0.359758494228
0.347567865358
0.347567719607
0.347567722842
0.347567691435
0.34756758981
0.347567443167
0.34756721841
0.347566933815
0.347566578085
0.347566169789
0.347565712428
0.347565203564
0.34756465038
0.347564075083
0.347563494827
0.347562939706
0.347562420612
0.347561980184
0.34756163174
0.34756140156
0.347561287564
0.347561281009
0.347561366936
0.347561537084
0.34756177827
0.347562083813
0.347562411149
0.34756273843
0.347563032192
0.347563305888
0.347563519862
0.347563645936
0.347563676798
0.347563627594
0.347563522188
0.347563350047
0.347563137464
0.347562885037
0.347562712351
0.347562585436
0.347563241845
0.335372583011
0.335372477415
0.335372479821
0.335372448013
0.335372338301
0.335372181246
0.335371940056
0.335371637467
0.335371259093
0.335370825607
0.33537033725
0.335369798765
0.335369215603
0.335368612667
0.335368006054
0.335367427716
0.335366890902
0.335366436489
0.335366079797
0.335365845213
0.33536573251
0.335365734086
0.335365835792
0.335366028852
0.335366298442
0.335366634655
0.335366995581
0.335367360496
0.335367694223
0.335368004007
0.33536825101
0.335368410852
0.335368475704
0.335368455671
0.335368374117
0.335368220851
0.335368023399
0.335367780778
0.335367609995
0.335367471127
0.335368028598
0.323177308711
0.323177239165
0.323177240941
0.323177208683
0.323177091735
0.323176925312
0.323176669645
0.323176351012
0.323175952446
0.323175496588
0.323174981006
0.323174416368
0.323173806834
0.323173179641
0.323172550225
0.323171951969
0.323171400152
0.323170934149
0.323170570875
0.323170333234
0.323170222577
0.323170232322
0.323170349086
0.323170563541
0.323170859318
0.323171224052
0.323171616277
0.323172016032
0.323172386478
0.323172730082
0.323173008542
0.323173200486
0.323173297464
0.323173305658
0.323173247664
0.323173113505
0.323172931646
0.323172699542
0.323172530541
0.323172381055
0.323172846167
0.31098203841
0.310982000766
0.310982002058
0.310981969315
0.310981846027
0.310981671348
0.310981403182
0.310981070569
0.310980654424
0.310980179157
0.310979640176
0.310979052999
0.310978420863
0.310977772978
0.310977124403
0.3109765096
0.310975945572
0.310975470388
0.310975102226
0.310974862812
0.310974754835
0.310974772621
0.310974903494
0.31097513759
0.310975457127
0.310975847887
0.310976268699
0.31097670013
0.310977103813
0.310977478542
0.310977786383
0.310978008326
0.310978135307
0.310978170379
0.310978135275
0.310978020073
0.310977853961
0.310977632858
0.310977465684
0.310977306989
0.310977687211
0.298786768716
0.298786758915
0.298786759822
0.29878672658
0.298786597881
0.298786416111
0.298786137441
0.298785793003
0.298785362018
0.298784870425
0.29878431191
0.298783705934
0.298783055092
0.298782390225
0.298781726214
0.298781098295
0.298780524914
0.298780042977
0.298779671641
0.298779431684
0.298779326911
0.298779352468
0.298779496313
0.298779748097
0.298780088778
0.298780502777
0.298780949118
0.298781408757
0.298781841989
0.298782244788
0.298782579513
0.298782828989
0.298782983617
0.298783043889
0.298783030683
0.29878293397
0.298782783497
0.298782573693
0.298782408527
0.298782242082
0.2987825453
0.286591496796
0.286591510956
0.286591511539
0.286591477804
0.286591344645
0.286591156994
0.286590869828
0.28659051579
0.286590072799
0.286589568051
0.286588993897
0.286588372955
0.286587707403
0.28658702938
0.286586353724
0.286585716168
0.286585136347
0.286584650095
0.286584277314
0.286584037989
0.286583936855
0.286583969787
0.286584125309
0.286584392665
0.286584751717
0.286585185924
0.286585654456
0.286586138588
0.286586597501
0.286587025018
0.286587383784
0.28658765803
0.286587837748
0.286587921276
0.286587928707
0.286587849756
0.286587714595
0.286587516233
0.286587353364
0.286587180646
0.28658741483
0.274396220307
0.274396254775
0.274396255061
0.274396220863
0.274396084211
0.274395891924
0.274395598275
0.274395236915
0.274394784817
0.274394270152
0.274393684269
0.274393052262
0.274392376068
0.274391688802
0.274391005337
0.274390361661
0.274389778351
0.274389290235
0.274388917741
0.274388680177
0.274388583035
0.274388622839
0.274388788616
0.274389069296
0.274389443817
0.274389895002
0.274390382162
0.274390886876
0.274391367456
0.2743918161
0.274392195784
0.274392491801
0.274392693879
0.274392798511
0.274392825092
0.27439276297
0.274392642614
0.274392455708
0.274392295504
0.274392117994
0.274392290967
0.262200937339
0.262200988713
0.26220098871
0.262200954104
0.262200814931
0.262200619278
0.26220032116
0.262199954792
0.262199496524
0.262198975224
0.262198381524
0.262197742396
0.262197059672
0.262196367134
0.26219567973
0.262195033469
0.262194449651
0.26219396212
0.262193591644
0.262193356925
0.262193264056
0.26219331014
0.262193484648
0.262193776302
0.262194163284
0.262194628059
0.262195130115
0.262195651352
0.262196149472
0.262196615463
0.26219701272
0.262197327326
0.262197548894
0.262197672318
0.262197716385
0.262197669995
0.26219756379
0.262197388249
0.262197231137
0.262197050294
0.262197169576
0.250005646352
0.250005711497
0.250005711199
0.250005676262
0.250005535544
0.250005337812
0.250005037228
0.250004668187
0.250004206706
0.250003682076
0.250003084452
0.250002442168
0.250001757046
0.25000106324
0.250000375778
0.249999730475
0.24999914914
0.249998664637
0.2499982979
0.249998067066
0.249997978688
0.249998030383
0.249998212022
0.24999851222
0.249998908578
0.24999938344
0.249999896537
0.250000430127
0.250000941581
0.250001421001
0.250001832318
0.250002162193
0.250002400278
0.250002540059
0.250002599808
0.250002567926
0.250002475107
0.250002310756
0.250002157194
0.250001974449
0.25000204716
0.23781034613
0.237810422175
0.237810421568
0.237810386404
0.237810245111
0.237810046594
0.237809745535
0.23780937616
0.237808914422
0.237808389765
0.237807792084
0.237807150603
0.23780646721
0.237805776148
0.2378050925
0.237804451687
0.237803875822
0.237803396772
0.237803035478
0.237802809525
0.237802725803
0.23780278238
0.237802969491
0.237803275748
0.237803678349
0.23780415971
0.237804679912
0.237805221621
0.237805742153
0.237806230988
0.237806652733
0.237806994465
0.237807246018
0.237807399642
0.237807473165
0.237807454475
0.237807374188
0.237807220786
0.237807071251
0.23780688799
0.237806920794
0.225615035744
0.225615120074
0.225615119145
0.225615083881
0.225614942974
0.225614744968
0.225614445398
0.225614078021
0.225613618962
0.225613097565
0.225612503642
0.225611866899
0.225611189334
0.225610505009
0.225609829021
0.225609196199
0.225608628773
0.225608157574
0.2256078034
0.225607583284
0.225607504333
0.225607565014
0.2256077559
0.225608065701
0.225608471384
0.225608955609
0.225609478937
0.225610024499
0.225610549836
0.225611044021
0.225611472488
0.225611822609
0.225612084539
0.225612249443
0.225612334759
0.225612327881
0.22561225921
0.225612116466
0.225611971435
0.225611788998
0.225611788075
0.213419714525
0.213419804771
0.213419803508
0.213419768293
0.213419628719
0.213419432513
0.213419136366
0.213418773295
0.213418319814
0.213417804926
0.213417218515
0.213416590395
0.213415922705
0.21341524907
0.213414584541
0.213413963165
0.213413407112
0.213412946122
0.213412600713
0.213412387343
0.213412313238
0.213412377208
0.21341257015
0.213412880969
0.213413286572
0.213413770014
0.21341429248
0.213414837632
0.213415363518
0.213415858972
0.213416290419
0.213416645444
0.213416914644
0.213417088247
0.213417183332
0.213417186849
0.213417128839
0.213416996421
0.213416856367
0.213416676037
0.213416647075
0.201224382027
0.201224476051
0.201224474451
0.201224439453
0.201224302142
0.201224109009
0.201223818178
0.201223461687
0.201223016631
0.201222511447
0.20122193622
0.20122132054
0.201220666699
0.201220007642
0.201219358301
0.201218751762
0.201218209963
0.20121776149
0.201217426447
0.201217220692
0.201217151468
0.201217217887
0.201217411163
0.201217720482
0.201218122866
0.201218601891
0.201219119535
0.201219660053
0.201220182272
0.201220674936
0.201221105622
0.201221462084
0.20122173546
0.201221915189
0.201222018004
0.201222030481
0.201221982153
0.201221859709
0.201221725087
0.201221548087
0.201221496295
0.189029038002
0.18902913388
0.189029131947
0.189029097354
0.189028963211
0.189028774404
0.189028490734
0.189028143049
0.189027709196
0.189027216838
0.189026656368
0.189026056856
0.189025420742
0.189024780064
0.189024149553
0.189023561161
0.189023036428
0.189022602717
0.189022279595
0.189022082275
0.189022017938
0.18902208595
0.189022277847
0.189022583177
0.189022979248
0.189023450266
0.189023959184
0.189024490909
0.18902500532
0.18902549119
0.189025917414
0.189026271889
0.189026546387
0.189026729704
0.189026838214
0.189026858222
0.189026818591
0.189026705753
0.189026576997
0.189026404489
0.189026334611
0.176833682374
0.176833778384
0.176833776135
0.176833742149
0.176833612053
0.176833428796
0.176833154075
0.176832817361
0.176832397407
0.176831920907
0.176831378654
0.176830798927
0.176830184304
0.176829565698
0.176828957549
0.176828390513
0.176827885575
0.176827468798
0.176827159091
0.176826970983
0.176826911508
0.176826980254
0.176827169083
0.176827467982
0.176827854709
0.176828314202
0.176828810577
0.176829329448
0.176829832009
0.176830307171
0.176830725296
0.176831074438
0.176831347065
0.176831531488
0.17683164369
0.176831669818
0.176831637908
0.176831534304
0.176831411823
0.176831244908
0.176831161248
0.164638315235
0.164638409839
0.164638407299
0.164638374136
0.164638248936
0.164638072417
0.164637808367
0.164637484718
0.164637081262
0.164636623546
0.16463610284
0.164635546387
0.164634956881
0.164634363909
0.164633781529
0.164633238941
0.164632756427
0.16463235867
0.164632063809
0.16463188564
0.16463183098
0.164631899602
0.164632083712
0.1646323738
0.164632748242
0.16463319279
0.164633672916
0.164634174997
0.164634661792
0.164635122446
0.164635528935
0.1646358695
0.16463613735
0.164636320474
0.164636434411
0.164636465287
0.164636440142
0.164636345401
0.164636229581
0.164636069296
0.164635975744
0.152442936813
0.152443028646
0.152443025852
0.15244299374
0.152442874247
0.152442705613
0.152442453883
0.152442145309
0.152441760839
0.152441324712
0.152440828736
0.152440298897
0.152439737979
0.152439174055
0.152438620702
0.15243810552
0.152437647944
0.152437271198
0.152436992541
0.15243682499
0.152436775077
0.15243684273
0.15243702052
0.152437299497
0.15243765882
0.152438085123
0.152438545432
0.152439026938
0.152439494203
0.152439936696
0.152440328137
0.152440657005
0.152440917279
0.152441096795
0.152441210576
0.152441244877
0.152441225573
0.152441139336
0.152441030536
0.152440877854
0.152440777917
0.140247547458
0.140247635313
0.140247632315
0.140247601488
0.140247488475
0.140247328822
0.14024709098
0.140246799397
0.14024643628
0.140246024409
0.140245556182
0.140245056135
0.1402445271
0.140243995468
0.140243474236
0.140242989269
0.140242559017
0.140242205164
0.140241943991
0.140241787683
0.140241742433
0.140241808293
0.140241978222
0.140242243886
0.140242585378
0.140242990281
0.140243427369
0.140243884692
0.14024432884
0.140244749686
0.140245122818
0.140245437017
0.140245687047
0.140245860756
0.140245972575
0.140246009038
0.140245994692
0.140245916615
0.140245815168
0.140245671001
0.140245567829
0.12805214763
0.128052230451
0.128052227308
0.128052198006
0.128052092202
0.128051942573
0.128051720096
0.128051447314
0.128051107779
0.128050722682
0.128050285048
0.128049817786
0.128049323737
0.128048827455
0.128048341257
0.128047889146
0.128047488459
0.128047159266
0.128046916772
0.128046772281
0.128046731596
0.128046794865
0.128046955467
0.128047205724
0.128047526819
0.128047907331
0.128048317978
0.128048747707
0.128049165348
0.128049561259
0.128049912995
0.128050209725
0.128050446985
0.128050612819
0.128050720965
0.1280507584
0.128050748178
0.128050677939
0.128050584153
0.128050449351
0.128050345766
0.115856737893
0.115856814764
0.115856811545
0.11585678401
0.115856686096
0.115856547471
0.115856341742
0.115856089455
0.115855775586
0.115855419616
0.115855015226
0.115854583543
0.115854127374
0.115853669296
0.115853220847
0.115852804052
0.115852435019
0.115852132124
0.115851909412
0.115851777258
0.115851741027
0.115851800942
0.115851950834
0.115852183715
0.115852482005
0.115852835323
0.115853216513
0.115853615462
0.115854003426
0.115854371327
0.115854698776
0.115854975423
0.115855197554
0.115855353585
0.115855456458
0.115855493757
0.115855486883
0.115855424181
0.115855338342
0.115855213695
0.115855112218
0.103661318896
0.103661389035
0.103661385818
0.103661360292
0.103661270898
0.103661144192
0.103660956487
0.103660726266
0.103660439988
0.103660115319
0.103659746619
0.103659353097
0.103658937477
0.103658520237
0.103658112037
0.103657732827
0.103657397367
0.103657122273
0.103656920348
0.103656800996
0.103656769102
0.103656824942
0.103656962831
0.103657176504
0.103657449757
0.103657773281
0.103658122224
0.103658487445
0.103658842802
0.103659179858
0.103659480344
0.1036597345
0.103659939323
0.103660083777
0.1036601799
0.103660216042
0.103660211803
0.103660156368
0.10366007874
0.103659964977
0.10365986785
0.0914658913631
0.0914659541175
0.0914659509868
0.0914659277061
0.0914658474091
0.0914657334618
0.0914655649478
0.0914653582303
0.0914651012982
0.0914648099166
0.0914644791349
0.0914641261276
0.0914637534863
0.0914633794822
0.0914630138071
0.0914626742426
0.0914623740951
0.0914621281636
0.0914619479294
0.0914618417863
0.0914618141062
0.0914618651952
0.0914619898941
0.0914621826757
0.0914624288487
0.0914627201994
0.0914630343463
0.0914633631525
0.0914636832299
0.0914639868583
0.0914642579406
0.0914644874193
0.0914646729467
0.0914648042169
0.0914648922455
0.0914649263079
0.0914649240593
0.0914648756488
0.0914648064751
0.0914647042691
0.0914646134807
0.0792704560805
0.0792705109245
0.0792705079696
0.0792704871668
0.0792704164837
0.0792703160588
0.0792701677852
0.0792699858658
0.0792697598587
0.0792695035504
0.0792692126855
0.0792689023063
0.0792685748206
0.079268246203
0.079267925087
0.0792676270097
0.079267363728
0.079267148167
0.079266990421
0.0792668978365
0.0792668742436
0.07926691996
0.0792670303887
0.0792672007561
0.0792674180085
0.0792676750433
0.0792679521048
0.0792682420855
0.0792685244845
0.0792687923752
0.079269031863
0.0792692347117
0.0792693991656
0.0792695158193
0.0792695945526
0.0792696257132
0.0792696248839
0.0792695832881
0.0792695227926
0.079269432757
0.0792693500631
0.067075013898
0.0670750604331
0.0670750577454
0.0670750396431
0.0670749790303
0.0670748928085
0.0670747657023
0.0670746097268
0.0670744160367
0.0670741963776
0.0670739471881
0.0670736812985
0.0670734008806
0.0670731195397
0.0670728447662
0.0670725897895
0.0670723647291
0.0670721805897
0.0670720460188
0.067071967284
0.0670719476506
0.06707198743
0.0670720826266
0.0670722292266
0.0670724159318
0.0670726367584
0.0670728747171
0.0670731237532
0.0670733663643
0.067073596493
0.0670738024602
0.0670739769732
0.0670741187936
0.0670742195825
0.0670742879702
0.0670743155147
0.0670743156104
0.067074280653
0.0670742290405
0.0670741517314
0.0670740786755
0.0548795657124
0.0548796036704
0.0548796013398
0.0548795861483
0.0548795359983
0.0548794645731
0.0548793594334
0.0548792303922
0.0548790702169
0.0548788885643
0.0548786825595
0.0548784627584
0.0548782310456
0.0548779986006
0.054877771692
0.0548775611917
0.0548773755035
0.0548772236734
0.0548771128507
0.0548770481975
0.054877032397
0.0548770657375
0.0548771448638
0.0548772665224
0.054877421278
0.0548776042668
0.0548778013902
0.0548780076672
0.0548782086825
0.0548783993233
0.0548785701214
0.0548787148502
0.0548788327056
0.0548789165726
0.0548789737225
0.0548789970477
0.0548789976542
0.0548789691936
0.0548789266499
0.0548788625659
0.0548788004986
0.0426841124527
0.0426841417037
0.0426841398127
0.0426841277269
0.0426840883661
0.0426840322406
0.0426839497342
0.042683848456
0.0426837227925
0.0426835802776
0.042683418709
0.0426832463245
0.04268306467
0.04268288246
0.0426827046692
0.0426825397755
0.0426823943991
0.0426822755983
0.0426821889807
0.0426821385815
0.0426821264903
0.0426821529563
0.0426822153039
0.0426823110336
0.0426824326705
0.0426825764646
0.0426827313163
0.0426828933351
0.0426830512599
0.042683200996
0.0426833352647
0.0426834490262
0.0426835418226
0.0426836079076
0.0426836530914
0.0426836717088
0.0426836724944
0.0426836504243
0.0426836171156
0.0426835666972
0.0426835167946
0.0304886550768
0.0304886756409
0.030488674257
0.0304886654531
0.0304886371397
0.0304885967226
0.0304885373803
0.0304884645277
0.0304883741667
0.0304882716878
0.0304881555429
0.0304880316244
0.03048790109
0.0304877701662
0.0304876424696
0.0304875240611
0.0304874197202
0.0304873344967
0.0304872724228
0.0304872363905
0.0304872278897
0.0304872471158
0.0304872921109
0.0304873611174
0.030487448707
0.0304875522315
0.0304876636796
0.0304877802661
0.0304878939279
0.03048800166
0.0304880983359
0.0304881802196
0.0304882471068
0.0304882947517
0.0304883274098
0.0304883409483
0.0304883416651
0.0304883259154
0.0304883019872
0.0304882656143
0.0304882288986
0.018293194566
0.0182932066319
0.0182932057964
0.0182932004285
0.0182931833516
0.0182931589544
0.018293123168
0.0182930792333
0.0182930247545
0.0182929629722
0.0182928929685
0.018292818281
0.018292739631
0.0182926607513
0.0182925838435
0.0182925125424
0.0182924497401
0.0182923984678
0.0182923611564
0.0182923395445
0.0182923345216
0.0182923462155
0.0182923734232
0.0182924151108
0.018292467971
0.0182925304394
0.0182925976641
0.0182926679758
0.0182927365316
0.0182928014848
0.0182928598084
0.0182929091813
0.0182929495587
0.0182929783106
0.0182929980553
0.0182930062631
0.0182930067481
0.0182929972856
0.0182929828607
0.0182929608493
0.0182929382097
0.00609773190984
0.00609773586222
0.00609773557397
0.00609773377079
0.00609772804863
0.0060977198841
0.00609770790372
0.00609769320575
0.00609767497481
0.00609765430805
0.00609763088927
0.00609760590883
0.00609757960621
0.00609755323039
0.00609752752009
0.00609750368862
0.00609748270565
0.0060974655822
0.00609745313166
0.00609744593453
0.00609744428506
0.00609744823035
0.00609745735729
0.00609747133323
0.00609748903311
0.00609750995279
0.00609753245091
0.00609755598262
0.00609757892403
0.00609760065187
0.00609762017231
0.00609763668269
0.00609765020266
0.00609765981632
0.00609766643456
0.00609766918016
0.00609766935528
0.00609766618461
0.00609766136061
0.00609765395609
0.00609764617366
)
;

boundaryField
{
    in
    {
        type            zeroGradient;
    }
    out
    {
        type            zeroGradient;
    }
    top
    {
        type            fixedValue;
        value           uniform 0;
    }
    bottom
    {
        type            fixedValue;
        value           nonuniform List<scalar> 
41
(
0.500012898436
0.500012954843
0.500012954843
0.500012898436
0.500012954843
0.500012954843
0.500013144666
0.500013144666
0.500013144666
0.500013144666
0.50001345921
0.50001345921
0.50001345921
0.500013349192
0.500013349192
0.500013349192
0.500013172215
0.500013172215
0.500012978153
0.500012978153
0.500012978153
0.500012978153
0.500012937109
0.500012937109
0.500012658675
0.500012658675
0.500012658675
0.500012658675
0.500012109921
0.500012109921
0.500012109921
0.500012109921
0.500011441848
0.500011441848
0.50001113877
0.50001113877
0.500010859918
0.500010859918
0.500010493789
0.500010493789
0.500010493789
)
;
    }
    frontback
    {
        type            empty;
    }
}


// ************************************************************************* //
