/*--------------------------------*- C++ -*----------------------------------*\
| =========                 |                                                 |
| \\      /  F ield         | OpenFOAM: The Open Source CFD Toolbox           |
|  \\    /   O peration     | Version:  2112                                  |
|   \\  /    A nd           | Website:  www.openfoam.com                      |
|    \\/     M anipulation  |                                                 |
\*---------------------------------------------------------------------------*/
FoamFile
{
    version     2.0;
    format      ascii;
    arch        "LSB;label=32;scalar=64";
    class       volScalarField;
    location    "1";
    object      T;
}
// * * * * * * * * * * * * * * * * * * * * * * * * * * * * * * * * * * * * * //

dimensions      [0 0 0 1 0 0 0];

internalField   nonuniform List<scalar> 
1681
(
-1.12634655082e+25
-1.16194127375e+25
-1.18077082136e+25
-1.25353263002e+25
-1.18806353638e+25
-1.17843002002e+25
-9.99028890368e+24
-9.89751280896e+24
-9.85059744124e+24
-9.67110668693e+24
-5.8619787112e+24
-5.67536947212e+24
-5.60019983441e+24
-4.71900236916e+24
-4.66562438714e+24
-4.61661725461e+24
-3.78854197154e+24
-3.7275104522e+24
-3.26175569459e+24
-3.23713941746e+24
-3.23133509116e+24
-3.22836635366e+24
-3.22296473614e+24
-3.211626054e+24
-2.98325720699e+24
-2.97008167613e+24
-2.96076575728e+24
-2.91989369193e+24
-2.03594394921e+24
-1.99485534422e+24
-1.98795628041e+24
-1.99078096427e+24
-2.10950363647e+24
-2.11904376947e+24
-2.2121605828e+24
-2.22597482162e+24
-2.45074989274e+24
-2.44535809444e+24
-2.08729709117e+24
-2.071449012e+24
-2.06898931183e+24
-8.76861075108e+24
-1.05358622042e+25
-1.10727402412e+25
-1.17277713004e+25
-1.12906502776e+25
-1.10917244941e+25
-9.67870925996e+24
-9.46691087544e+24
-9.33326242345e+24
-8.93394388727e+24
-5.93024176948e+24
-5.5115003983e+24
-5.32251895922e+24
-4.59720209005e+24
-4.47012393034e+24
-4.35426688257e+24
-3.68697082364e+24
-3.55079225862e+24
-3.16754246583e+24
-3.110657163e+24
-3.09387570121e+24
-3.08517083269e+24
-3.07452377106e+24
-3.04890291481e+24
-2.86675599887e+24
-2.83571540921e+24
-2.8091710983e+24
-2.71884639184e+24
-2.02397250739e+24
-1.93320779378e+24
-1.91349129844e+24
-1.91773707348e+24
-2.01011389031e+24
-2.03101777166e+24
-2.10869102497e+24
-2.13854749359e+24
-2.31101022023e+24
-2.29962754531e+24
-2.02305980426e+24
-1.98873371264e+24
-1.98179445122e+24
-6.92239088914e+24
-9.50331882163e+24
-1.03346929997e+25
-1.09654240973e+25
-1.06925134602e+25
-1.04487726325e+25
-9.32019298917e+24
-9.03488108016e+24
-8.82809236705e+24
-8.30102983955e+24
-5.8950440028e+24
-5.33957671931e+24
-5.06715277302e+24
-4.45224329672e+24
-4.27512793194e+24
-4.11458053463e+24
-3.56467472406e+24
-3.38454693432e+24
-3.06084965082e+24
-2.98327646293e+24
-2.95678726705e+24
-2.94272159386e+24
-2.92731805085e+24
-2.89297365669e+24
-2.74471870042e+24
-2.70172804985e+24
-2.66063419544e+24
-2.54214671607e+24
-1.98797803257e+24
-1.86915715685e+24
-1.8385335835e+24
-1.84167342036e+24
-1.9140879696e+24
-1.94121466418e+24
-2.00763066801e+24
-2.04595739741e+24
-2.17914672624e+24
-2.16481429685e+24
-1.94943118784e+24
-1.90534778864e+24
-1.89476248146e+24
-5.54126555536e+24
-8.5442711542e+24
-9.60745814114e+24
-1.02418117327e+25
-1.00956230789e+25
-9.84327303638e+24
-8.93007160977e+24
-8.60245023733e+24
-8.33818596603e+24
-7.74400960891e+24
-5.78633274738e+24
-5.15811031599e+24
-4.82700886121e+24
-4.29116423132e+24
-4.08100286865e+24
-3.89159011573e+24
-3.42856763861e+24
-3.22507655921e+24
-2.9453287192e+24
-2.85500649818e+24
-2.82034327219e+24
-2.80142806528e+24
-2.78191771431e+24
-2.74251864534e+24
-2.6193459769e+24
-2.56857681602e+24
-2.51601218254e+24
-2.38329354026e+24
-1.93494871178e+24
-1.80228769975e+24
-1.76298983626e+24
-1.76365330921e+24
-1.8206908596e+24
-1.85064597216e+24
-1.90850542787e+24
-1.9504312406e+24
-2.05400635576e+24
-2.03862139998e+24
-1.86950692106e+24
-1.82131971574e+24
-1.80803485818e+24
-4.49625522343e+24
-7.66783011304e+24
-8.90127002619e+24
-9.55308510251e+24
-9.50647483867e+24
-9.2673724717e+24
-8.5197592352e+24
-8.171245149e+24
-7.86483851699e+24
-7.24316046514e+24
-5.62575351889e+24
-4.96718983034e+24
-4.59726870348e+24
-4.11910314627e+24
-3.88815326192e+24
-3.68121773753e+24
-3.28356329581e+24
-3.07015381721e+24
-2.82370655301e+24
-2.72610287166e+24
-2.68484537962e+24
-2.66168251101e+24
-2.63876325921e+24
-2.59672265547e+24
-2.49232440055e+24
-2.43675375365e+24
-2.37572526024e+24
-2.23779032577e+24
-1.86996157032e+24
-1.73266177051e+24
-1.68690115077e+24
-1.68448563448e+24
-1.7294906774e+24
-1.7600655738e+24
-1.81112933169e+24
-1.85359126716e+24
-1.93472717479e+24
-1.91944115567e+24
-1.78557863624e+24
-1.73686263484e+24
-1.72178415299e+24
-3.69604280083e+24
-6.87509999865e+24
-8.22327478313e+24
-8.89701357234e+24
-8.92961575792e+24
-8.71612752445e+24
-8.09785640749e+24
-7.74312618646e+24
-7.40838680611e+24
-6.78478044157e+24
-5.4290534506e+24
-4.76783566063e+24
-4.37477540051e+24
-3.93986262921e+24
-3.6970182302e+24
-3.48071302888e+24
-3.13319618653e+24
-2.91852601424e+24
-2.69806821541e+24
-2.59696690926e+24
-2.55062008633e+24
-2.52385944966e+24
-2.49821572016e+24
-2.45511500286e+24
-2.36496544841e+24
-2.30674167021e+24
-2.23995300271e+24
-2.10253719447e+24
-1.79673782824e+24
-1.6606223301e+24
-1.61041109328e+24
-1.60480690772e+24
-1.64026225326e+24
-1.67005375303e+24
-1.71549348189e+24
-1.75663139873e+24
-1.82067438573e+24
-1.80615479118e+24
-1.69935927149e+24
-1.6522920555e+24
-1.63621062323e+24
-3.07555003176e+24
-6.1626513632e+24
-7.57812401634e+24
-8.27231660066e+24
-8.36826694107e+24
-8.18653889176e+24
-7.67092246431e+24
-7.31997628539e+24
-6.9687057692e+24
-6.35937608889e+24
-5.20777669738e+24
-4.5615744894e+24
-4.15757473578e+24
-3.75630659909e+24
-3.50806196407e+24
-3.28825798225e+24
-2.98004691017e+24
-2.76957887288e+24
-2.57004765581e+24
-2.46807870109e+24
-2.41801155983e+24
-2.38831552134e+24
-2.36058638768e+24
-2.31745809249e+24
-2.23830351882e+24
-2.17899170991e+24
-2.10875130401e+24
-1.97540885794e+24
-1.71803286696e+24
-1.58666367735e+24
-1.53373711652e+24
-1.52513570492e+24
-1.5529202986e+24
-1.58107198427e+24
-1.62169357311e+24
-1.66044052177e+24
-1.7113880261e+24
-1.69799088053e+24
-1.61214308196e+24
-1.56797213965e+24
-1.55153556486e+24
-2.58811585708e+24
-5.52471852201e+24
-6.96852535392e+24
-7.67822967298e+24
-7.8247301762e+24
-7.67688902028e+24
-7.244017794e+24
-6.90358484619e+24
-6.54548975741e+24
-5.96039976419e+24
-4.97046052776e+24
-4.35016423873e+24
-3.94457180349e+24
-3.57063727892e+24
-3.3217625725e+24
-3.10268802793e+24
-2.8260329979e+24
-2.62310909613e+24
-2.44095611054e+24
-2.33995270053e+24
-2.28737304679e+24
-2.25538905727e+24
-2.22615363886e+24
-2.18366939847e+24
-2.11316524768e+24
-2.05391327376e+24
-1.98211985753e+24
-1.85496039609e+24
-1.63591015676e+24
-1.51134826735e+24
-1.45714605379e+24
-1.44590828963e+24
-1.46747274109e+24
-1.49349840287e+24
-1.5298827738e+24
-1.56568869304e+24
-1.60654096485e+24
-1.59442456269e+24
-1.52491924778e+24
-1.48428126189e+24
-1.46799348708e+24
-2.20008720094e+24
-4.95455386472e+24
-6.39571882306e+24
-7.11423077875e+24
-7.30065400211e+24
-7.18628798117e+24
-6.8210861793e+24
-6.49558850617e+24
-6.1384023615e+24
-5.58336621677e+24
-4.72347957655e+24
-4.13542053642e+24
-3.7352748778e+24
-3.3845868271e+24
-3.13860118327e+24
-2.92329417954e+24
-2.67260733839e+24
-2.47917081634e+24
-2.31186849149e+24
-2.21310834978e+24
-2.15905821298e+24
-2.12539914494e+24
-2.0951717431e+24
-2.05376662806e+24
-1.99021868327e+24
-1.93187070292e+24
-1.86003913606e+24
-1.74022131607e+24
-1.55193381594e+24
-1.43525432783e+24
-1.38093381624e+24
-1.36750148789e+24
-1.38398786662e+24
-1.40765057309e+24
-1.44024125523e+24
-1.47288734967e+24
-1.50590553254e+24
-1.49510531028e+24
-1.43845254288e+24
-1.40159041793e+24
-1.38582431117e+24
-1.88704855542e+24
-4.44523334204e+24
-5.85987018929e+24
-6.57987498697e+24
-6.79720886443e+24
-6.71436263051e+24
-6.40522588083e+24
-6.09744517498e+24
-5.7471476402e+24
-5.22523202022e+24
-4.47164229001e+24
-3.91911070477e+24
-3.52960513267e+24
-3.19954881815e+24
-2.95905201786e+24
-2.74968203409e+24
-2.52089324405e+24
-2.33797216093e+24
-2.18368155046e+24
-2.08805071439e+24
-2.03341314785e+24
-1.9986442495e+24
-1.96787478313e+24
-1.92782904846e+24
-1.87000830875e+24
-1.8131834497e+24
-1.74248888446e+24
-1.63055081698e+24
-1.46730413554e+24
-1.3589438226e+24
-1.30540905114e+24
-1.29024703214e+24
-1.30257097978e+24
-1.3237999527e+24
-1.35295662591e+24
-1.38243131974e+24
-1.40932719807e+24
-1.39980483605e+24
-1.3533406416e+24
-1.3202501014e+24
-1.30526624908e+24
-1.63117716065e+24
-3.9901105013e+24
-5.36038460901e+24
-6.07470031744e+24
-6.31520372308e+24
-6.26104460026e+24
-5.99888319074e+24
-5.71042689361e+24
-5.37149578121e+24
-4.88395792105e+24
-4.2186128723e+24
-3.70289200944e+24
-3.32775600232e+24
-3.01666770821e+24
-2.78357366075e+24
-2.58167085881e+24
-2.37177616743e+24
-2.19980578307e+24
-2.05715315347e+24
-1.96525780668e+24
-1.91076938655e+24
-1.87540055655e+24
-1.84447771564e+24
-1.80597014983e+24
-1.75298011311e+24
-1.69812786987e+24
-1.62945569456e+24
-1.52553567225e+24
-1.38295313516e+24
-1.28294369902e+24
-1.23088033053e+24
-1.21444028884e+24
-1.22334768769e+24
-1.24218097768e+24
-1.26821149843e+24
-1.29462811308e+24
-1.3167039099e+24
-1.30837931583e+24
-1.27005487297e+24
-1.24058270108e+24
-1.2265496728e+24
-1.419377883e+24
-3.58304969871e+24
-4.89614979678e+24
-5.59817946491e+24
-5.85516509217e+24
-5.82642661987e+24
-5.60399186633e+24
-5.33562285778e+24
-5.01128362783e+24
-4.55819905264e+24
-3.96721036578e+24
-3.48827846426e+24
-3.13008989383e+24
-2.83689923888e+24
-2.6126015486e+24
-2.41922110361e+24
-2.22596584863e+24
-2.06500240889e+24
-1.93292896678e+24
-1.84517241194e+24
-1.7914380804e+24
-1.75592022363e+24
-1.72517587229e+24
-1.68831831526e+24
-1.63949966518e+24
-1.58693962142e+24
-1.52093439596e+24
-1.42491792535e+24
-1.29961211438e+24
-1.20773569561e+24
-1.15764637063e+24
-1.1403453726e+24
-1.14645184851e+24
-1.16299670721e+24
-1.18617571775e+24
-1.20971834455e+24
-1.22796995456e+24
-1.22074187258e+24
-1.18896926449e+24
-1.16287845867e+24
-1.14989207835e+24
-1.24196180571e+24
-3.21852395575e+24
-4.46571997403e+24
-5.1497000788e+24
-5.41739203353e+24
-5.41066619003e+24
-5.22207471652e+24
-4.97394755107e+24
-4.66640252632e+24
-4.24708496745e+24
-3.71962122916e+24
-3.27662573148e+24
-2.93706295211e+24
-2.66105096311e+24
-2.44654164428e+24
-2.26238219761e+24
-2.08403837854e+24
-1.93389999619e+24
-1.81156080011e+24
-1.72819698478e+24
-1.67570532342e+24
-1.64042971117e+24
-1.6101437301e+24
-1.57500319424e+24
-1.52986527606e+24
-1.47981615883e+24
-1.4169261903e+24
-1.32854354823e+24
-1.21785958883e+24
-1.13375158461e+24
-1.08598878593e+24
-1.06819801231e+24
-1.07201685534e+24
-1.08642231382e+24
-1.10700163988e+24
-1.12788999854e+24
-1.14308340698e+24
-1.13684247848e+24
-1.11038131826e+24
-1.08739370028e+24
-1.0754941302e+24
-1.09170603221e+24
-2.89163271166e+24
-4.0674518451e+24
-4.72856206195e+24
-5.00199576735e+24
-5.01392214211e+24
-4.85431867479e+24
-4.62615114797e+24
-4.33678092584e+24
-3.95006309736e+24
-3.47755102895e+24
-3.06912724488e+24
-2.74917085654e+24
-2.48980935764e+24
-2.28576524972e+24
-2.11125492442e+24
-1.94646469989e+24
-1.80682350679e+24
-1.69351946274e+24
-1.61469067894e+24
-1.56382857907e+24
-1.52912833142e+24
-1.49953347312e+24
-1.46614618047e+24
-1.42431772643e+24
-1.37691910236e+24
-1.31743530968e+24
-1.23632592378e+24
-1.13815549467e+24
-1.0613718058e+24
-1.01616692462e+24
-9.9820709114e+23
-1.00016934874e+24
-1.01260726734e+24
-1.03082141608e+24
-1.04928844001e+24
-1.06201643822e+24
-1.05665326882e+24
-1.03452696805e+24
-1.01435050836e+24
-1.00353671018e+24
-9.6318199406e+23
-2.59807468582e+24
-3.69960278831e+24
-4.33398436541e+24
-4.60892941818e+24
-4.63631407845e+24
-4.50163126771e+24
-4.29283067868e+24
-4.02236602128e+24
-3.66678726664e+24
-3.24233329435e+24
-2.86681710699e+24
-2.56691036501e+24
-2.32375803678e+24
-2.13060491409e+24
-1.96596436208e+24
-1.81363002375e+24
-1.684071924e+24
-1.57920404897e+24
-1.5049678978e+24
-1.45603412174e+24
-1.42218711805e+24
-1.39347366604e+24
-1.36185387869e+24
-1.32304760677e+24
-1.27837642071e+24
-1.22246525506e+24
-1.14821987771e+24
-1.06086578971e+24
-9.9092617215e+23
-9.48414390816e+23
-9.30555473913e+23
-9.31024734759e+23
-9.41676769877e+23
-9.57745608234e+23
-9.74023511455e+23
-9.84747902572e+23
-9.80157843535e+23
-9.61591457777e+23
-9.43937302116e+23
-9.34178867011e+23
-8.52273643598e+23
-2.33409789117e+24
-3.36039997399e+24
-3.96511650887e+24
-4.23801139241e+24
-4.27789775362e+24
-4.16468400742e+24
-3.97444122545e+24
-3.72310678601e+24
-3.39703840828e+24
-3.0150082578e+24
-2.6705769283e+24
-2.39075263707e+24
-2.16339019345e+24
-1.98135139569e+24
-1.82664055031e+24
-1.68584722817e+24
-1.56591024677e+24
-1.4689489358e+24
-1.39929796258e+24
-1.35251539657e+24
-1.31974808486e+24
-1.29206822786e+24
-1.26221377807e+24
-1.22620101509e+24
-1.18428444531e+24
-1.13201521602e+24
-1.06420327069e+24
-9.8628034793e+23
-9.22695807502e+23
-8.82936921612e+23
-8.65400522014e+23
-8.64684074661e+23
-8.73732804408e+23
-8.87862702587e+23
-9.02174656093e+23
-9.11257751101e+23
-9.0734353685e+23
-8.91717377887e+23
-8.76309991911e+23
-8.67556554914e+23
-7.558304351e+23
-2.0964402618e+24
-3.04808757628e+24
-3.62105191221e+24
-3.88894459228e+24
-3.93865156751e+24
-3.84394657856e+24
-3.67130685619e+24
-3.43893955736e+24
-3.14066845612e+24
-2.79638044984e+24
-2.48114484022e+24
-2.2211253637e+24
-2.00911740931e+24
-1.83825163399e+24
-1.69340486872e+24
-1.56336633237e+24
-1.4525649319e+24
-1.3630293482e+24
-1.29790562929e+24
-1.25343220036e+24
-1.22192391241e+24
-1.19539580746e+24
-1.1672915786e+24
-1.13388414137e+24
-1.09470976863e+24
-1.04607699074e+24
-9.84264049899e+23
-9.14626180206e+23
-8.56915790654e+23
-8.19911345374e+23
-8.02874549615e+23
-8.01232039801e+23
-8.08855029576e+23
-8.21239244672e+23
-8.33794725446e+23
-8.41522915539e+23
-8.38195920342e+23
-8.25010736149e+23
-8.11593500255e+23
-8.03782051991e+23
-6.71416331723e+23
-1.88226883433e+24
-2.7609578084e+24
-3.30084134984e+24
-3.56133285303e+24
-3.61847079885e+24
-3.5397145316e+24
-3.38363122982e+24
-3.16977663151e+24
-2.89756103672e+24
-2.58706146969e+24
-2.29912560426e+24
-2.0584014794e+24
-1.86127628323e+24
-1.70150768251e+24
-1.56636068264e+24
-1.44638146758e+24
-1.34422175263e+24
-1.26166605808e+24
-1.20097227151e+24
-1.15891058987e+24
-1.12879807728e+24
-1.10350960564e+24
-1.07712977531e+24
-1.04616711325e+24
-1.00969108737e+24
-9.64632552238e+23
-9.08391275453e+23
-8.46077406826e+23
-7.93778183424e+23
-7.59485399088e+23
-7.43085374609e+23
-7.40735710187e+23
-7.4710166592e+23
-7.57920417797e+23
-7.6891293e+23
-7.75514382413e+23
-7.72695004288e+23
-7.61545682669e+23
-7.49883522895e+23
-7.42943957295e+23
-5.97127471656e+23
-1.68912191192e+24
-2.49737025796e+24
-3.00350562771e+24
-3.2546954722e+24
-3.3171672153e+24
-3.25213238092e+24
-3.11150791306e+24
-2.91549791487e+24
-2.66760442831e+24
-2.38750238305e+24
-2.12500117865e+24
-1.90289279275e+24
-1.72013384067e+24
-1.57127654505e+24
-1.44558721428e+24
-1.33503630159e+24
-1.24102537269e+24
-1.16502958723e+24
-1.10863759906e+24
-1.06904342901e+24
-1.04042541878e+24
-1.01643765117e+24
-9.91747212849e+23
-9.63087366022e+23
-9.2924104572e+23
-8.87652303411e+23
-8.36569064741e+23
-7.80762980055e+23
-7.3343524887e+23
-7.01778225287e+23
-6.8611704974e+23
-6.83244052177e+23
-6.88510460057e+23
-6.97930950048e+23
-7.07537249588e+23
-7.13195234466e+23
-7.10812743471e+23
-7.01368324952e+23
-6.9124845275e+23
-6.85107675191e+23
-5.31459109542e+23
-1.51485644851e+24
-2.25576295273e+24
-2.72804707493e+24
-2.96848037551e+24
-3.03447239485e+24
-2.98121343312e+24
-2.85493048324e+24
-2.67594545353e+24
-2.45067354093e+24
-2.19801887641e+24
-1.95914137735e+24
-1.75484728841e+24
-1.58589234809e+24
-1.44767084867e+24
-1.33113587723e+24
-1.22942855333e+24
-1.1430801559e+24
-1.07324415158e+24
-1.02100181524e+24
-9.83891491564e+23
-9.56833123019e+23
-9.34183513604e+23
-9.11139398091e+23
-8.84652719262e+23
-8.53348121884e+23
-8.15094002604e+23
-7.68772696244e+23
-7.18772853654e+23
-6.76002745976e+23
-6.46881403807e+23
-6.32030813533e+23
-6.28787949023e+23
-6.33099773687e+23
-6.41276273181e+23
-6.49656519284e+23
-6.54519480408e+23
-6.52511553491e+23
-6.44499936915e+23
-6.35731418906e+23
-6.30316305425e+23
-4.7320805977e+23
-1.35760155613e+24
-2.03465773943e+24
-2.47345973419e+24
-2.70207625968e+24
-2.77004357853e+24
-2.72685726676e+24
-2.61380249014e+24
-2.45092054854e+24
-2.24661857304e+24
-2.01881136126e+24
-1.80181442107e+24
-1.61444916366e+24
-1.45869392147e+24
-1.33076027816e+24
-1.22302850924e+24
-1.12961401225e+24
-1.050451877e+24
-9.86391493083e+23
-9.38128135548e+23
-9.03485041294e+23
-8.78022092535e+23
-8.56727420083e+23
-8.35279409311e+23
-8.1084428291e+23
-7.81978587496e+23
-7.46902308054e+23
-7.04966322834e+23
-6.60163083628e+23
-6.21563235407e+23
-5.94860401132e+23
-5.80866270405e+23
-5.77380683946e+23
-5.80869817551e+23
-5.87943880048e+23
-5.95242334703e+23
-5.99431527522e+23
-5.97743614929e+23
-5.90939771293e+23
-5.83352409547e+23
-5.78591866592e+23
-4.21400822544e+23
-1.21571825338e+24
-1.83266188723e+24
-2.23873829958e+24
-2.45482392627e+24
-2.52347121371e+24
-2.48886549858e+24
-2.38794733104e+24
-2.24018311809e+24
-2.0552586344e+24
-1.84998155893e+24
-1.65319727678e+24
-1.48182089203e+24
-1.33862515739e+24
-1.2205736903e+24
-1.12125707751e+24
-1.03561032512e+24
-9.63170096337e+23
-9.04514684558e+23
-8.60045602638e+23
-8.27825815791e+23
-8.03968661993e+23
-7.84027733807e+23
-7.64119276357e+23
-7.41619273135e+23
-7.15078555981e+23
-6.8300887289e+23
-6.45101891304e+23
-6.04960194433e+23
-5.70169359245e+23
-5.45756341791e+23
-5.32642789798e+23
-5.29018793421e+23
-5.31804032686e+23
-5.37904840873e+23
-5.44250869695e+23
-5.47866177364e+23
-5.46450793916e+23
-5.40667617165e+23
-5.34110456633e+23
-5.29936789009e+23
-3.75240371276e+23
-1.08776513811e+24
-1.6484673043e+24
-2.02288592965e+24
-2.22602693971e+24
-2.29428758289e+24
-2.26695626817e+24
-2.17711806754e+24
-2.04345295871e+24
-1.87637907277e+24
-1.69154662639e+24
-1.51338573382e+24
-1.35702677612e+24
-1.22572190537e+24
-1.11710182077e+24
-1.02578452841e+24
-9.4740070801e+23
-8.81231024415e+23
-8.27621950103e+23
-7.86752139399e+23
-7.56889344762e+23
-7.34626614848e+23
-7.16022745957e+23
-6.97591730792e+23
-6.76913786403e+23
-6.52576124048e+23
-6.23332915361e+23
-5.89118968236e+23
-5.53165038579e+23
-5.21847072974e+23
-4.99588022929e+23
-4.87361101838e+23
-4.83683220849e+23
-4.85870609342e+23
-4.91115446324e+23
-4.96624663023e+23
-4.99749044501e+23
-4.98565044531e+23
-4.93646195764e+23
-4.87985864163e+23
-4.84335620098e+23
-3.34066561683e+23
-9.72469447042e+23
-1.4808483559e+24
-1.82492109276e+24
-2.01496169189e+24
-2.08197607836e+24
-2.06077772824e+24
-1.98100718682e+24
-1.86041256978e+24
-1.70973156072e+24
-1.54345154996e+24
-1.38240419071e+24
-1.24007757616e+24
-1.11997422672e+24
-1.02030049331e+24
-9.3654652414e+23
-8.64937669126e+23
-8.04600744333e+23
-7.55690515508e+23
-7.18217786459e+23
-6.90627536951e+23
-6.69929452406e+23
-6.52632730046e+23
-6.35612242294e+23
-6.16645557199e+23
-5.94383600446e+23
-5.67782187967e+23
-5.36945245702e+23
-5.04756302481e+23
-4.76598815686e+23
-4.56354106064e+23
-4.45005059704e+23
-4.41340709877e+23
-4.43024126076e+23
-4.47518949348e+23
-4.52294404982e+23
-4.54997313538e+23
-4.54009185346e+23
-4.49823452997e+23
-4.44942463312e+23
-4.41756891432e+23
-2.97326528968e+23
-8.68702876238e+23
-1.32865897094e+24
-1.64388360117e+24
-1.8208869227e+24
-1.88598079962e+24
-1.86992072614e+24
-1.79925628818e+24
-1.69071122939e+24
-1.55503622706e+24
-1.40558029806e+24
-1.26021513689e+24
-1.13093589404e+24
-1.02133153719e+24
-9.30094240062e+23
-8.53453859019e+23
-7.88146780149e+23
-7.33218687902e+23
-6.88670483748e+23
-6.54388073327e+23
-6.28971473752e+23
-6.09792865266e+23
-5.93762206791e+23
-5.78081270167e+23
-5.60716708309e+23
-5.40399808439e+23
-5.16254271673e+23
-4.88497552977e+23
-4.59693758531e+23
-4.34406607796e+23
-4.16035430119e+23
-4.05543535062e+23
-4.01945383609e+23
-4.03207286734e+23
-4.07047379976e+23
-4.11180736999e+23
-4.13520761844e+23
-4.12697962396e+23
-4.09134782553e+23
-4.0492987787e+23
-4.0215510198e+23
-2.64552444864e+23
-7.75461527111e+23
-1.19082949916e+24
-1.47883997506e+24
-1.64305272557e+24
-1.70571623376e+24
-1.69393079096e+24
-1.63146565845e+24
-1.53397003828e+24
-1.41198528335e+24
-1.27776605823e+24
-1.14672831614e+24
-1.02952206103e+24
-9.29707900716e+23
-8.46380242441e+23
-7.76395386147e+23
-7.16930501338e+23
-6.67001280451e+23
-6.2648871843e+23
-5.95187475092e+23
-5.71834351376e+23
-5.5411735723e+23
-5.3930236841e+23
-5.24886668382e+23
-5.09016491005e+23
-4.90512442906e+23
-4.68638125907e+23
-4.43683238761e+23
-4.17921326359e+23
-3.95235066523e+23
-3.78597397906e+23
-3.68932411646e+23
-3.65440461605e+23
-3.66352730442e+23
-3.69623408593e+23
-3.73196065115e+23
-3.75222985345e+23
-3.74539326079e+23
-3.71505196388e+23
-3.67885783239e+23
-3.6547277681e+23
-2.35344725604e+23
-6.91849376076e+23
-1.06636361622e+24
-1.3288882543e+24
-1.48070905263e+24
-1.54057683769e+24
-1.53231949049e+24
-1.47720368777e+24
-1.38978767847e+24
-1.28024771698e+24
-1.15980076654e+24
-1.04180955616e+24
-9.35720329506e+23
-8.4498742357e+23
-7.69032505191e+23
-7.052413129e+23
-6.51172045023e+23
-6.05845682461e+23
-5.69052710294e+23
-5.40522908862e+23
-5.19114517162e+23
-5.02790972805e+23
-4.89133612965e+23
-4.75906189838e+23
-4.61424004444e+23
-4.44600459208e+23
-4.24815830362e+23
-4.0240181642e+23
-3.79369980413e+23
-3.59034329184e+23
-3.43992394611e+23
-3.3511664218e+23
-3.31760071311e+23
-3.32384888451e+23
-3.35162234011e+23
-3.38246380014e+23
-3.4000277282e+23
-3.39435861045e+23
-3.36851447492e+23
-3.33738141845e+23
-3.31642564701e+23
-2.0935929606e+23
-6.17064718377e+23
-9.54335455204e+23
-1.19316235117e+24
-1.33311372495e+24
-1.38994638431e+24
-1.38457518889e+24
-1.33601606879e+24
-1.25774666238e+24
-1.15947471223e+24
-1.05144405673e+24
-9.45289245838e+23
-8.49385207604e+23
-7.67029688914e+23
-6.97906179536e+23
-6.39846745708e+23
-5.90739249236e+23
-5.49633565839e+23
-5.16254397448e+23
-4.90287226582e+23
-4.70698549525e+23
-4.55692081442e+23
-4.43128141841e+23
-4.31010041504e+23
-4.1781087838e+23
-4.02536468701e+23
-3.8466446038e+23
-3.64546785742e+23
-3.43960523238e+23
-3.25742873696e+23
-3.12162202153e+23
-3.04032335124e+23
-3.00831114705e+23
-3.0122186165e+23
-3.03573473442e+23
-3.06233071069e+23
-3.07755580949e+23
-3.07286317346e+23
-3.05084101895e+23
-3.02407397662e+23
-3.00589341841e+23
-1.86297885846e+23
-5.50389098467e+23
-8.53887058956e+23
-1.07083601352e+24
-1.19953994703e+24
-1.25320696564e+24
-1.250173213e+24
-1.20743471925e+24
-1.13741987648e+24
-1.0493055291e+24
-9.52431700735e+23
-8.5697043849e+23
-7.70347806556e+23
-6.95675168315e+23
-6.3284195699e+23
-5.80055382036e+23
-5.35488426268e+23
-4.98234870311e+23
-4.67973908244e+23
-4.4436266371e+23
-4.26464335098e+23
-4.12692174442e+23
-4.01152576642e+23
-3.90063447392e+23
-3.78043900345e+23
-3.64189115026e+23
-3.48058043608e+23
-3.30007560801e+23
-3.11606231956e+23
-2.9529022522e+23
-2.83040377812e+23
-2.75608839784e+23
-2.72575154882e+23
-2.7277729323e+23
-2.7476303248e+23
-2.77054718889e+23
-2.78375068342e+23
-2.7798719862e+23
-2.76109551899e+23
-2.73808612806e+23
-2.72232292336e+23
-1.65900600552e+23
-4.91178301532e+23
-7.64226189301e+23
-9.6112644732e+23
-1.07928332121e+24
-1.12974757052e+24
-1.12858542244e+24
-1.09098636797e+24
-1.02837725012e+24
-9.49373622952e+23
-8.62483575877e+23
-7.766365581e+23
-6.98422094332e+23
-6.30750547891e+23
-5.73670461577e+23
-5.25703262271e+23
-4.85268148099e+23
-4.51511491988e+23
-4.24083195804e+23
-4.02624206476e+23
-3.86284100993e+23
-3.73658633918e+23
-3.63070555448e+23
-3.52929181138e+23
-3.41987567215e+23
-3.29425405701e+23
-3.14869551567e+23
-2.98671446211e+23
-2.82215377881e+23
-2.67599537792e+23
-2.5655456967e+23
-2.49770800883e+23
-2.46910291028e+23
-2.46962212488e+23
-2.4863493442e+23
-2.50608849574e+23
-2.51754652057e+23
-2.51434369421e+23
-2.49831959615e+23
-2.47853529796e+23
-2.46486939612e+23
-1.47940204349e+23
-4.38855038598e+23
-6.84624489237e+23
-8.63297629553e+23
-9.71668354748e+23
-1.01897217206e+24
-1.01928917002e+24
-9.86200746669e+23
-9.30192404285e+23
-8.5931282928e+23
-7.81311169911e+23
-7.04058684942e+23
-6.33410968925e+23
-5.72073910208e+23
-5.20216575152e+23
-4.76622506713e+23
-4.39922930522e+23
-4.09320861867e+23
-3.84449534464e+23
-3.64942843822e+23
-3.50027364389e+23
-3.38457436849e+23
-3.28745272192e+23
-3.19470034325e+23
-3.09506541035e+23
-2.98112974635e+23
-2.84972885403e+23
-2.70425614135e+23
-2.55693614497e+23
-2.42590039926e+23
-2.32628744947e+23
-2.26440156485e+23
-2.23752993732e+23
-2.23686827391e+23
-2.25093089668e+23
-2.26793633552e+23
-2.27789054811e+23
-2.27524649181e+23
-2.2615511854e+23
-2.24452544001e+23
-2.23267105861e+23
-1.32217689482e+23
-3.92903008544e+23
-6.1441596685e+23
-7.76663326479e+23
-8.76054449895e+23
-9.20307273703e+23
-9.21775635834e+23
-8.92618334764e+23
-8.4244915769e+23
-7.78763472167e+23
-7.08624621426e+23
-6.39002398121e+23
-5.75112080791e+23
-5.19459718533e+23
-4.72303637888e+23
-4.32644973986e+23
-3.992967796e+23
-3.71519377417e+23
-3.48938850656e+23
-3.31188673763e+23
-3.17563765979e+23
-3.06955761186e+23
-2.98041926871e+23
-2.89551190878e+23
-2.80467989735e+23
-2.70122252974e+23
-2.58244820486e+23
-2.45159042734e+23
-2.31946226533e+23
-2.2017933376e+23
-2.11185310642e+23
-2.05538056008e+23
-2.03019875886e+23
-2.02862245506e+23
-2.04042987493e+23
-2.05509512427e+23
-2.06375815222e+23
-2.06157364858e+23
-2.04984220431e+23
-2.03516571887e+23
-2.02486779559e+23
-1.18558807818e+23
-3.52862062687e+23
-5.52995750806e+23
-7.00589819095e+23
-7.91841365537e+23
-8.33208873551e+23
-8.35557517221e+23
-8.09797610395e+23
-7.64747788114e+23
-7.07378282832e+23
-6.44139285881e+23
-5.81234155221e+23
-5.23323348287e+23
-4.72723556874e+23
-4.29757473928e+23
-3.93605787344e+23
-3.6323656745e+23
-3.37965655658e+23
-3.17418863687e+23
-3.01233837716e+23
-2.88765758216e+23
-2.7902446501e+23
-2.7083005835e+23
-2.63042481825e+23
-2.5474379498e+23
-2.45328527948e+23
-2.34566879697e+23
-2.2276438379e+23
-2.10880231897e+23
-2.00285538241e+23
-1.92147108979e+23
-1.8698667805e+23
-1.84629377603e+23
-1.84402105028e+23
-1.85393294061e+23
-1.86660738244e+23
-1.87416737274e+23
-1.87235838475e+23
-1.86227515223e+23
-1.84958802087e+23
-1.8406187379e+23
-1.06811309267e+23
-3.18324229332e+23
-4.99819052265e+23
-6.34498324383e+23
-7.18474136164e+23
-7.57168814822e+23
-7.60176058705e+23
-7.37321768371e+23
-6.9671096641e+23
-6.44828039197e+23
-5.87581815992e+23
-5.30527193571e+23
-4.77848122791e+23
-4.31686587103e+23
-3.92410200461e+23
-3.59346684959e+23
-3.31595208738e+23
-3.08523581408e+23
-2.89762015379e+23
-2.74955260387e+23
-2.63511123643e+23
-2.54540413887e+23
-2.46985735563e+23
-2.3982049864e+23
-2.3221261138e+23
-2.23613872046e+23
-2.1382711018e+23
-2.03139733353e+23
-1.92406328481e+23
-1.82829268127e+23
-1.75439273045e+23
-1.7071093059e+23
-1.6850334658e+23
-1.68224099721e+23
-1.69057342422e+23
-1.70156810959e+23
-1.70819258599e+23
-1.70668789345e+23
-1.69797852527e+23
-1.68696317734e+23
-1.67911860638e+23
-9.68426774548e+22
-2.8893037394e+23
-4.54400252505e+23
-5.77867086878e+23
-6.55447429671e+23
-6.91720495304e+23
-6.95207407422e+23
-6.74804873178e+23
-6.37989298061e+23
-5.90806858163e+23
-5.38695746884e+23
-4.86666942784e+23
-4.38499971861e+23
-3.96179692631e+23
-3.60103786758e+23
-3.29719159071e+23
-3.04234614067e+23
-2.83065129367e+23
-2.65848171106e+23
-2.5223717652e+23
-2.41685302598e+23
-2.33388635311e+23
-2.26393586594e+23
-2.19770546801e+23
-2.12761763401e+23
-2.04868927419e+23
-1.95921742807e+23
-1.86190284524e+23
-1.76440678568e+23
-1.6773544192e+23
-1.60990930614e+23
-1.5664001876e+23
-1.5456849787e+23
-1.54251383505e+23
-1.54954501562e+23
-1.55913801158e+23
-1.56497720028e+23
-1.56371633793e+23
-1.55614094251e+23
-1.54651579847e+23
-1.53961269028e+23
-8.85381774249e+22
-2.64367270891e+23
-4.16312015305e+23
-5.30233098083e+23
-6.02309318281e+23
-6.36443910996e+23
-6.4026828143e+23
-6.21897422292e+23
-5.88266422905e+23
-5.45037090698e+23
-4.97246580595e+23
-4.49455944354e+23
-4.05107059529e+23
-3.66047286433e+23
-3.32693337725e+23
-3.04587357081e+23
-2.81028401445e+23
-2.61472943397e+23
-2.45567078188e+23
-2.3297342931e+23
-2.23183513122e+23
-2.15464282488e+23
-2.08948648319e+23
-2.02788424186e+23
-1.96288968334e+23
-1.88994532939e+23
-1.80756717589e+23
-1.71829845899e+23
-1.62906524775e+23
-1.54934913129e+23
-1.48736746254e+23
-1.44708867501e+23
-1.42757739151e+23
-1.42413841823e+23
-1.43011412766e+23
-1.43855546063e+23
-1.44374521131e+23
-1.4426766754e+23
-1.43602388674e+23
-1.42753762523e+23
-1.42141035045e+23
-8.17990326744e+22
-2.44364837362e+23
-3.85184293042e+23
-4.91193379009e+23
-5.58664425286e+23
-5.90970007034e+23
-5.95020937905e+23
-5.78291300527e+23
-5.47263636871e+23
-5.07273785286e+23
-4.63026369715e+23
-4.18718280161e+23
-3.77516112289e+23
-3.41150768919e+23
-3.10050083827e+23
-2.83830724617e+23
-2.61864351375e+23
-2.43642660138e+23
-2.28820570327e+23
-2.17069527741e+23
-2.07912648344e+23
-2.00674391938e+23
-1.94558021428e+23
-1.88782010882e+23
-1.82703874941e+23
-1.75903183101e+23
-1.68249061349e+23
-1.59982212691e+23
-1.51735632342e+23
-1.44365920145e+23
-1.38618293285e+23
-1.34859387793e+23
-1.33011348652e+23
-1.32649217553e+23
-1.33163081743e+23
-1.3391470711e+23
-1.34381147649e+23
-1.34289117264e+23
-1.33697296575e+23
-1.3293993101e+23
-1.32389694671e+23
-7.65405271695e+22
-2.28693217865e+23
-3.60703048871e+23
-4.60405730369e+23
-5.24176390775e+23
-5.54984299941e+23
-5.59177422725e+23
-5.43724106821e+23
-5.14744007628e+23
-4.77308695836e+23
-4.35857803143e+23
-3.94303515399e+23
-3.55595965474e+23
-3.21371626102e+23
-2.92064063711e+23
-2.67346374801e+23
-2.46646593273e+23
-2.29484965535e+23
-2.15524507187e+23
-2.04444450299e+23
-1.95792936722e+23
-1.88939419338e+23
-1.83142315503e+23
-1.77672656752e+23