/*--------------------------------*- C++ -*----------------------------------*\
| =========                 |                                                 |
| \\      /  F ield         | OpenFOAM: The Open Source CFD Toolbox           |
|  \\    /   O peration     | Version:  v1912                                 |
|   \\  /    A nd           | Website:  www.openfoam.com                      |
|    \\/     M anipulation  |                                                 |
\*---------------------------------------------------------------------------*/
FoamFile
{
    version     2.0;
    format      ascii;
    class       volScalarField;
    object      T;
}
// * * * * * * * * * * * * * * * * * * * * * * * * * * * * * * * * * * * * * //

dimensions      [0 0 0 1 0 0 0];

internalField   uniform 310;

boundaryField
{
    in
    {
        type            zeroGradient;
    }
    out
    {
	type		zeroGradient;
    }
    top
    {
        type            fixedGradient;
	gradient	uniform 0;
    }
    bottom
    {
        type            fixedValue;
	value		uniform 320;
    }
    frontback
    {
        type            empty;
    }
}

