FoamFile
{
    version     2.0;
    format      ascii;
    class       dictionary;
    location    "system";
    object      preciceDict;
}

preciceConfig "../precice-config.xml";

participant Solid;

modules (CEM);

interfaces
{
  Interface1
  {
    mesh              Solid-Mesh-Centers;
    locations         faceCenters;
    connectivity      false;
    patches           (top_int left_int bot_int right_int);
    
    readData
    (
	//Current
	CurrentRobin
    );
    
    writeData
    (
	Potential
    );
  };
};

CEM
{
   sigma [-1 -3 3 0 0 2 0] 100;
};
