FoamFile
{
    version     2.0;
    format      ascii;
    class       dictionary;
    location    "system";
    object      preciceDict;
}

preciceConfig "../precice-config.xml";

participant Solid;

modules (CEM);

interfaces
{
  Interface1
  {
    mesh              Solid-Mesh-Centers;
    locations         faceCenters;
    connectivity      false;
    patches           (top);
    
    readData
    (
    );
    
    writeData
    (
      Potential
    );
  };
  
  Interfaces2
  {
    mesh              Solid-Mesh-Nodes;
    locations         faceNodes;
    connectivity      true;
    patches           (top);
    
    readData
    (
      ElectricFlux
    );
    
    writeData
    (
    );
  };
};

CEM
{
   k   [ 1  1 -3 -1 0 0 0 ] 100;
   solverType "basic";
};
