FoamFile
{
    version     2.0;
    format      ascii;
    class       dictionary;
    location    "constant";
    object      transportProperties;
}
// * * * * * * * * * * * * * * * * * * * * * * * * * * * * * * * * * * * * * //

DT      [0 2 -1 0 0 0 0] 	1;

rho 	[1 -3 0 0 0 0 0] 	1;

cp	[0 2 -2 -1 0 0 0] 	1;

sigma	[-1 -3 3 0 0 2 0]	100;

sigma	100;

// ************************************************************************* //
