FoamFile
{
    version     2.0;
    format      ascii;
    class       volScalarField;
    object      phiE;
}
// * * * * * * * * * * * * * * * * * * * * * * * * * * * * * * * * * * * * * //

dimensions      [1 2 -3 0 0 -1 0];

internalField   uniform 0;

boundaryField
{
    in
    {
        type            zeroGradient;
    }
    out
    {
        type            zeroGradient;
    }
    top
    {
        type            fixedValue;
        value           uniform 0;
    }
    bottom
    {
        type            fixedGradient;
        gradient        uniform 0;
    }
    frontback
    {
        type            empty;
    }
}

// ************************************************************************* //
