FoamFile
{
    version     2.0;
    format      ascii;
    class       dictionary;
    object      controlDict;
}

application     	cemFFHTFoam;

startFrom       	startTime;

startTime       	0;

stopAt          	endTime;

endTime         	1;

deltaT          	2.5e-07; //2.5e-07;

writeControl    	runTime;

writeInterval   	2e-5;

purgeWrite      	0;

writeFormat     	ascii;

writePrecision  	12;

writeCompression 	off;

timeFormat      	general;

timePrecision   	12;

runTimeModifiable 	true;

adjustTimeStep  	no;

functions
{
    preCICE_Adapter
    {
        type preciceAdapterFunctionObject;
        libs ("libpreciceAdapterFunctionObject.so");
    }
}
