/*--------------------------------*- C++ -*----------------------------------*\
| =========                 |                                                 |
| \\      /  F ield         | OpenFOAM: The Open Source CFD Toolbox           |
|  \\    /   O peration     | Version:  v2112                                 |
|   \\  /    A nd           | Website:  www.openfoam.com                      |
|    \\/     M anipulation  |                                                 |
\*---------------------------------------------------------------------------*/
FoamFile
{
    version     2.0;
    format      ascii;
    class       dictionary;
    object      fvOptions;
}
// * * * * * * * * * * * * * * * * * * * * * * * * * * * * * * * * * * * * * //

heatSource
{
    type            scalarSemiImplicitSource;
    active          true;
 
    scalarSemiImplicitSourceCoeffs
    {
        selectionMode   all; // all, cellSet, cellZone, points
        volumeMode      specific; // absolute;
        injectionRateSuSp
        {
            T     (5 0);
        }
    }
}

// ************************************************************************* //
