FoamFile
{
    version     2.0;
    format      ascii;
    class       dictionary;
    object      preciceDict;
}

preciceConfig "../precice-config.xml";

participant Fluid;

modules (CEM);

interfaces
{
  Interface1
  {
    mesh              Fluid-Mesh-Centers;
    locations         faceCenters;
    connectivity      false;
    patches           (bottom);
    
    readData
    (
    );
    
    writeData
    (
      Current
    );
  };
  
  Interface2
  {
    mesh              Fluid-Mesh-Nodes;
    locations         faceNodes;
    connectivity      true;
    patches           (bottom);
    
    readData
    (
      Potential
    );
    
    writeData
    (
    );
  };
};
