FoamFile
{
    version     2.0;
    format      ascii;
    class       volVectorField;
    object      UxB;
}

dimensions      [ 1 1 -3 0 0 -1 0 ];

internalField   uniform ( 0 0 0 );

boundaryField
{
    "(inlet|outlet|ext_walls|top_int|bot_int|left_int|right_int)"
    {
        type            calculated;
	value		$internalField;
    }
}
