/*--------------------------------*- C++ -*----------------------------------*\
| =========                 |                                                 |
| \\      /  F ield         | OpenFOAM: The Open Source CFD Toolbox           |
|  \\    /   O peration     | Version:  v1912                                 |
|   \\  /    A nd           | Website:  www.openfoam.com                      |
|    \\/     M anipulation  |                                                 |
\*---------------------------------------------------------------------------*/
FoamFile
{
    version     2.0;
    format      ascii;
    class       volScalarField;
    object      T;
}
// * * * * * * * * * * * * * * * * * * * * * * * * * * * * * * * * * * * * * //

dimensions      [0 0 0 1 0 0 0];

internalField   uniform 300;

boundaryField
{
    "(inlet|outlet|ext_walls)"
    {
	type		zeroGradient;
    }
    bot_surf
    {
        type            fixedGradient;
        gradient        uniform 1000;
    }
    top_surf
    {
        type            fixedValue;
        value           uniform 300;
    }
    top_int
    {
	type		fixedGradient;
	gradient	uniform 1;
    }
    bot_int
    {
        type            fixedGradient;
        gradient        uniform 1;
    }
    left_int
    {
        type            fixedGradient;
        gradient        uniform 1;
    }
    right_int
    {
        type            fixedGradient;
        gradient        uniform 1;
    }
}

