/*--------------------------------*- C++ -*----------------------------------*\
| =========                 |                                                 |
| \\      /  F ield         | OpenFOAM: The Open Source CFD Toolbox           |
|  \\    /   O peration     | Version:  2112                                  |
|   \\  /    A nd           | Website:  www.openfoam.com                      |
|    \\/     M anipulation  |                                                 |
\*---------------------------------------------------------------------------*/
FoamFile
{
    version     2.0;
    format      ascii;
    arch        "LSB;label=32;scalar=64";
    class       surfaceScalarField;
    location    "1";
    object      phi;
}
// * * * * * * * * * * * * * * * * * * * * * * * * * * * * * * * * * * * * * //

dimensions      [0 3 -1 0 0 0 0];

oriented        oriented;

internalField   nonuniform List<scalar> 
3280
(
0.00030251178961
0.000917000400458
0.000201875176465
0.000100636614571
0.000190713128657
1.11620506214e-05
0.000183457487516
7.25563860859e-06
0.000184322988461
-8.65500927419e-07
0.000183689101687
6.33887901463e-07
0.000184149560841
-4.60459593273e-07
0.000184075045911
7.45146265169e-08
0.000184181527578
-1.06481383223e-07
0.000184160045373
2.14822274402e-08
0.000184179145753
-1.91005118147e-08
0.000184172195081
6.95070405605e-09
0.000184175523313
-3.32818257438e-09
0.000184173706637
1.81665236282e-09
0.000184174378141
-6.7152027746e-10
0.000184173974536
4.03619554918e-10
0.000184174130758
-1.56222839267e-10
0.000184174047231
8.35213076282e-11
0.000184174084511
-3.72793415899e-11
0.000184174067096
1.74181326305e-11
0.000184174075655
-8.55929261445e-12
0.000184174071868
3.78719817017e-12
0.000184174073756
-1.88495080956e-12
0.000184174072907
8.49780055438e-13
0.000184174073317
-4.09462995048e-13
0.000184174073126
1.91779244592e-13
0.000184174073215
-8.86773992789e-14
0.000184174073173
4.56595499557e-14
0.000184174073193
-2.1336217523e-14
0.000184174073184
1.20502351161e-14
0.000184174073189
-5.00375391758e-15
0.000184174073187
-1.40836874791e-15
0.000184174073187
3.50980341895e-16
0.000184174073187
1.58552450652e-16
0.000184174073186
1.19799525717e-15
0.000184174073186
-2.3993017535e-15
0.000184174073186
1.48902196742e-16
0.000184174073187
-3.39679003221e-15
0.000184174073187
-3.94450689313e-15
0.000184174073186
-2.80440615503e-15
1.33769961028e-15
0.000680514175831
0.0014559984183
0.0005284068212
0.000252743966566
0.000487299793793
5.2269081735e-05
0.000473691257128
2.08641739638e-05
0.000472821047139
4.70814178344e-09
0.000472163308821
1.29162725787e-06
0.00047274571104
-1.04286183097e-06
0.000472786177257
3.40479853179e-08
0.000472942927664
-2.63231642674e-07
0.000472942668342
2.17416660348e-08
0.00047296759253
-4.40248067437e-08
0.00047296205894
1.2484280468e-08
0.000472965286157
-6.55534854719e-09
0.000472963286206
3.81659589589e-09
0.000472963805735
-1.19106870179e-09
0.000472963343389
8.65973645852e-10
0.000472963473195
-2.86026441368e-10
0.000472963384074
1.72640008131e-10
0.000472963419592
-7.28027677718e-11
0.00047296340263
3.43789506875e-11
0.000472963411367
-1.72924315905e-11
0.000472963407818
7.33126683517e-12
0.000472963409758
-3.82796028688e-12
0.00047296340895
1.6568139483e-12
0.000472963409361
-8.23029476137e-13
0.000472963409174
3.79302052257e-13
0.000472963409262
-1.7870518781e-13
0.00047296340922
8.74202269736e-14
0.000472963409239
-3.85972988195e-14
0.00047296340923
1.94451838297e-14
0.000472963409235
-1.22971508956e-14
0.000472963409233
1.37886615024e-15
0.000472963409234
-2.23153392901e-15
0.000472963409234
3.13514051814e-16
0.000472963409232
-3.15126812817e-15
0.000472963409232
-4.16014610881e-15
0.000472963409232
5.98070169037e-16
0.000472963409233
-2.14357636024e-15
0.000472963409233
-6.13291540874e-15
0.000472963409232
-4.91266025367e-15
-1.76780520851e-15
0.00092670185286
0.00174880876216
0.000779201502029
0.000400244312242
0.000718735359563
0.000112735227927
0.000702147323325
3.74522100535e-05
0.000699004164956
3.14786504139e-06
0.00069851665114
1.77914183168e-06
0.000698982593451
-1.50880382271e-06
0.000699162840924
-1.46199921885e-07
0.00069932065291
-4.21043615639e-07
0.000699351625426
-9.23067954033e-09
0.000699374187849
-6.65872912369e-08
0.000699373435643
1.32364331217e-08
0.000699375160646
-8.28030604915e-09
0.000699373829005
5.14825025691e-09
0.000699373902266
-1.26435278899e-09
0.000699373563832
1.2044081008e-09
0.000699373596179
-3.18364780236e-10
0.000699373538535
2.30276397536e-10
0.000699373555201
-8.9472125968e-11
0.000699373546424
4.31550441116e-11
0.000699373551445
-2.23104911543e-11
0.000699373549833
8.94424771437e-12
0.000699373550973
-4.96804517436e-12
0.000699373550589
2.04125390916e-12
0.000699373550818
-1.05329380802e-12
0.000699373550721
4.74120990659e-13
0.000699373550767
-2.24337217413e-13
0.000699373550745
1.09631200559e-13
0.000699373550755
-4.77854396059e-14
0.00069937355075
2.55135560919e-14
0.000699373550753
-1.61245590892e-14
0.000699373550752
1.37179363683e-15
0.000699373550752
-2.42354137948e-15
0.000699373550752
2.42736912791e-15
0.000699373550751
4.05582974319e-16
0.00069937355075
-3.17685741432e-15
0.00069937355075
7.73858881484e-16
0.000699373550751
-3.46307009788e-15
0.000699373550751
-7.56922202403e-15
0.00069937355075
-4.79319499053e-15
-1.36979704253e-15
0.00109320494412
0.00187511601672
0.000965358021084
0.000528091227957
0.000899455656419
0.000178637595961
0.00088119549106
5.57123763815e-05
0.000876532789351
7.8105650026e-06
0.000876031714111
2.28021744838e-06
0.000876389013569
-1.86610269732e-06
0.000876642067452
-3.99254172197e-07
0.000876799263647
-5.78239933113e-07
0.00087684953262
-5.94994639662e-08
0.000876871286519
-8.83412019491e-08
0.000876873717494
1.08053838264e-08
0.000876874673514
-9.23629883162e-09
0.000876873784525
6.03726458472e-09
0.000876873600305
-1.08014930525e-09
0.000876873336656
1.46805305677e-09
0.000876873309537
-2.91233207453e-10
0.000876873269942
2.69870037006e-10
0.00087687327491
-9.44423892382e-11
0.000876873270883
4.7179502133e-11
0.00087687327363
-2.50534744881e-11
0.000876873273169
9.40951507669e-12
0.00087687327383
-5.630024193e-12
0.000876873273702
2.17198886779e-12
0.000876873273823
-1.17251151706e-12
0.000876873273781
5.17768252966e-13
0.000876873273802
-2.47233884666e-13
0.000876873273792
1.1843131913e-13
0.000876873273796
-5.40570515741e-14
0.000876873273793
2.84119802273e-14
0.000876873273795
-1.1118178712e-14
0.000876873273795
3.90947705446e-15
0.000876873273795
-2.23130048904e-15
0.000876873273795
-6.5393876734e-16
0.000876873273793
-2.9891097245e-15
0.000876873273793
-3.26427592475e-15
0.000876873273793
-5.87975579724e-16
0.000876873273794
1.08154454786e-15
0.000876873273794
-6.74649874691e-15
0.000876873273793
-2.82779734316e-15
-9.31970120741e-16
0.00120381210168
0.00189081611569
0.00110245758321
0.000629445737662
0.00103977727235
0.000241317909559
0.00102132931683
7.41603337629e-05
0.00101582899714
1.33108828989e-05
0.00101525178223
2.85743233918e-06
0.00101550432096
-2.1186406755e-06
0.0010157847281
-6.79661570474e-07
0.00101593598745
-7.29499519405e-07
0.00101599673823
-1.20250068853e-07
0.00101601786604
-1.09468964565e-07
0.00101602237343
6.29790558254e-09
0.00101602294846
-9.81131960743e-09
0.00101602238182
6.60393527498e-09
0.00101602205757
-7.55912504797e-10
0.00101602184638
1.67923774454e-09
0.00101602178381
-2.28651939274e-10
0.00101602175543
2.98248278301e-10
0.00101602175298
-9.199479652e-11
0.00101602175177
4.83925584816e-11
0.00101602175305
-2.63270964367e-11
0.00101602175328
9.17577581077e-12
0.00101602175363
-5.98544786105e-12
0.00101602175366
2.14034797707e-12
0.00101602175372
-1.22425435142e-12
0.00101602175371
5.26922581548e-13
0.00101602175372
-2.50577296937e-13
0.00101602175371
1.23001359185e-13
0.00101602175371
-5.51748766619e-14
0.00101602175371
2.70716042683e-14
0.00101602175371
-9.87713599886e-15
0.00101602175371
4.35615672191e-15
0.00101602175371
-2.75809112094e-15
0.00101602175371
9.90745488656e-16
0.00101602175371
-3.16931412362e-15
0.00101602175371
-3.37804852868e-15
0.00101602175371
-3.33360676481e-16
0.00101602175371
2.8436213025e-15
0.00101602175371
-6.33301420745e-15
0.00101602175371
-4.45732694543e-15
-2.12648086441e-15
0.00127539471982
0.00183493359801
0.00120239580173
0.000702444646252
0.00114814203296
0.000295571680263
0.00113083079663
9.14715725888e-05
0.0011250886125
1.90530654106e-05
0.00112443712233
3.5089221201e-06
0.00112459194898
-2.2734665261e-06
0.00112486789056
-9.55603263533e-07
0.00112500718122
-8.68790473188e-07
0.00112507149742
-1.84566129351e-07
0.00112509157108
-1.29542542407e-07
0.00112509729162
5.7728468299e-10
0.00112509769223
-1.02119457448e-08
0.00112509737262
6.92357514518e-09
0.00112509698713
-3.70421893817e-10
0.00112509681807
1.84828053619e-09
0.00112509673678
-1.47350345049e-10
0.001125096716
3.19038641172e-10
0.00112509670898
-8.49842189595e-11
0.00112509670942
4.79570552502e-11
0.00112509670973
-2.66319273832e-11
0.00112509671035
8.55336504991e-12
0.00112509671051
-6.14469808088e-12
0.00112509671063
2.01488334746e-12
0.00112509671064
-1.2371303183e-12
0.00112509671066
5.15208195246e-13
0.00112509671065
-2.46408488589e-13
0.00112509671065
1.24687289342e-13
0.00112509671065
-5.65745301113e-14
0.00112509671065
2.60289635449e-14
0.00112509671065
-4.27722951104e-15
0.00112509671065
4.36203700235e-15
0.00112509671065
-1.53883056846e-15
0.00112509671065
1.69692491874e-16
0.00112509671065
-3.54273863271e-15
0.00112509671065
-2.47761960991e-15
0.00112509671065
1.04748891375e-15
0.00112509671065
2.9719488607e-15
0.00112509671065
7.58794472118e-17
0.00112509671065
-8.35225000518e-16
1.37739564925e-15
0.00132001063557
0.00173443516616
0.0012743421113
0.000748113160876
0.00123134861028
0.000338565182302
0.00121624094367
0.000106579242076
0.00121075059226
2.45434155369e-05
0.00121006192959
4.19758408296e-06
0.00121012915581
-2.34069198629e-06
0.00121037877094
-1.2052183554e-06
0.0012105003134
-9.9033326358e-07
0.00121056274396
-2.46996613436e-07
0.00121058103728
-1.47835741766e-07
0.00121058727797
-5.66347357133e-09
0.00121058759721
-1.05312173709e-08
0.00121058747484
7.04598685019e-09
0.00121058708095
2.34725158049e-11
0.00121058695037
1.97883502841e-09
0.00121058686223
-5.92034910013e-11
0.00121058684732
3.33952083114e-10
0.00121058683772
-7.53797787153e-11
0.0012105868391
4.6572448551e-11
0.00121058683874
-2.62797626285e-11
0.00121058683957
7.72735474545e-12
0.00121058683959
-6.16828240669e-12
0.00121058683977
1.83929715909e-12
0.00121058683975
-1.22134897547e-12
0.00121058683978
4.86655111107e-13
0.00121058683977
-2.36075750807e-13
0.00121058683977
1.2091308543e-13
0.00121058683977
-5.3103474749e-14
0.00121058683977
2.59557647216e-14
0.00121058683977
-2.00841295579e-15
0.00121058683977
4.03612675743e-15
0.00121058683977
-2.12900686118e-15
0.00121058683977
-2.0030881023e-15
0.00121058683977
-6.12694074715e-15
0.00121058683977
-1.66916766767e-15
0.00121058683977
-2.39033034373e-15
0.00121058683977
1.57797510043e-15
0.00121058683977
2.1379617003e-15
0.00121058683977
-1.16790061322e-15
4.8635630442e-17
0.00134618854703
0.00160775882291
0.00132536614973
0.000768935548937
0.0012948440034
0.000369087328716
0.00128272355332
0.000118699695202
0.00127787327803
2.93936899588e-05
0.00127720058315
4.8702780227e-06
0.00127719228335
-2.33239153912e-06
0.00127740114184
-1.41407666275e-06
0.00127749989162
-1.08908336868e-06
0.001277556193
-3.03297969826e-07
0.00127757187228
-1.63514889557e-07
0.00127757807424
-1.18654868904e-08
0.00127757833469
-1.07917117725e-08
0.00127757837513
7.00557713853e-09
0.00127757800748
3.91137261904e-10
0.00127757791539
2.07090792941e-09
0.00127757782881
2.73652804819e-11
0.00127757781921
3.43557265604e-10
0.00127757780836
-6.45263405084e-11
0.00127757781029
4.46282194989e-11
0.00127757780948
-2.54622769617e-11
0.00127757781039
6.81341646025e-12
0.00127757781031
-6.08471313615e-12
0.00127757781051
1.64342807892e-12
0.00127757781047
-1.18563217075e-12
0.00127757781051
4.51867326756e-13
0.00127757781049
-2.24580607293e-13
0.0012775778105
1.15033773406e-13
0.0012775778105
-5.18041819356e-14
0.0012775778105
2.5194131825e-14
0.0012775778105
-4.23748187653e-15
0.0012775778105
4.98143954403e-15
0.0012775778105
-1.91832890682e-15
0.0012775778105
-3.25702871654e-16
0.0012775778105
-8.69089909008e-15
0.0012775778105
-4.97223586271e-15
0.0012775778105
5.83100395968e-16
0.0012775778105
1.82116335691e-15
0.0012775778105
2.41951554407e-15
0.0012775778105
-3.02017368553e-15
2.81274825814e-15
0.00135993285247
0.00146733817428
0.00136088140727
0.000767986985762
0.00134297469134
0.000386994043848
0.00133435306181
0.000127321327729
0.00133043039785
3.33163535189e-05
0.0013298297322
5.47094258702e-06
0.00132975891029
-2.26156914839e-06
0.0013299180652
-1.57323126004e-06
0.00132998999872
-1.16101718348e-06
0.00133003693892
-3.50238216625e-07
0.00133004919797
-1.75773803374e-07
0.00133005491186
-1.75794045279e-08
0.00133005509629
-1.09761927907e-08
0.00133005527373
6.82816264697e-09
0.00133005495445
7.10437871123e-10
0.00133005490238
2.12296425093e-09
0.00133005482334
1.06404157936e-10
0.00133005481907
3.47824681588e-10
0.00133005480792
-5.33728822305e-11
0.00133005481021
4.23275001086e-11
0.00133005480905
-2.43004298573e-11
0.00133005480997
5.88893112993e-12
0.0013300548098
-5.92564120762e-12
0.00133005481001
1.44012289991e-12
0.00133005480996
-1.13866217101e-12
0.00133005481
4.16551687104e-13
0.00133005480999
-2.05975417165e-13
0.00133005480999
1.07653975584e-13
0.00133005480999
-4.27715680113e-14
0.00133005480999
2.58475112192e-14
0.00133005480999
-6.63266551486e-15
0.00133005480999
7.3067648131e-15
0.00133005480999
-4.15456724602e-15
0.00133005480999
1.38456665351e-15
0.00133005480999
-8.70623182078e-15
0.00133005480999
-3.48690267126e-15
0.00133005480999
2.4519668525e-15
0.00133005480999
1.30646461037e-15
0.00133005480999
-8.30327043624e-16
0.00133005480999
4.4311999066e-16
4.02958437054e-15
0.00136546589575
0.00132138448192
0.00138500769895
0.000748445175461
0.00137919228539
0.000392809455844
0.00137434205929
0.000132171556573
0.00137154271622
3.6115696653e-05
0.00137106490594
5.94875173391e-06
0.00137094454666
-2.14120958605e-06
0.00137104911211
-1.67779630268e-06
0.00137109135077
-1.20325607997e-06
0.00137112656961
-3.85457162479e-07
0.00137113471557
-1.8391963251e-07
0.00137113958714
-2.24509683212e-08
0.00137113965971
-1.10488296086e-08
0.00137113995306
6.53482754391e-09
0.0013711396956
9.6792159634e-10
0.00137113968531
2.13323741939e-09
0.00137113961797
1.73733496138e-10
0.00137113961934
3.46462799625e-10
0.00137113960855
-4.2587612749e-11
0.00137113961111
3.97697633736e-11
0.00137113960968
-2.28694944175e-11
0.00137113961056
5.00653287578e-12
0.00137113961032
-5.6887038834e-12
0.00137113961052
1.23517888533e-12
0.00137113961047
-1.07939525881e-12
0.00137113961051
3.75927136462e-13
0.00137113961049
-1.88755647309e-13
0.0013711396105
9.92643802012e-14
0.0013711396105
-4.1131894883e-14
0.0013711396105
2.46194905488e-14
0.0013711396105
-1.01177405031e-14
0.0013711396105
6.83566932999e-15
0.0013711396105
-3.08668817262e-15
0.0013711396105
1.1506741459e-15
0.0013711396105
-8.65533431122e-15
0.0013711396105
-4.5135059562e-15
0.0013711396105
-6.6447438311e-16
0.0013711396105
2.04212234736e-15
0.0013711396105
1.30036870334e-15
0.0013711396105
9.93882773937e-16
4.63728853076e-15
0.00136574924129
0.00117514744359
0.00140086607086
0.000713328340366
0.00140622472686
0.00038745079767
0.00140522086266
0.00013317542312
0.00140365964538
3.76769144184e-05
0.00140334575651
6.26263950755e-06
0.00140318804025
-1.98349325743e-06
0.00140323617914
-1.72593474574e-06
0.00140324700502
-1.21408210578e-06
0.00140326891466
-4.07366957614e-07
0.00140327241767
-1.87422540111e-07
0.00140327617999
-2.62132565176e-08
0.00140327609988
-1.09687736337e-08
0.00140327649091
6.14380404921e-09
0.00140327630254
1.15631667121e-09
0.00140327633529
2.10048252331e-09
0.00140327628245
2.26564908187e-10
0.00140327628976
3.39156872195e-10
0.00140327627982
-3.26409880065e-11
0.00140327628261
3.69824406424e-11
0.00140327628096
-2.12208173408e-11
0.00140327628178
4.18749367799e-12
0.00140327628147
-5.38113254799e-12
0.00140327628167
1.04291397238e-12
0.0014032762816
-1.0079416356e-12
0.00140327628164
3.36819579057e-13
0.00140327628162
-1.71270576265e-13
0.00140327628163
9.117749662e-14
0.00140327628163
-3.40857262274e-14
0.00140327628163
2.17758997226e-14
0.00140327628163
-1.01698909273e-14
0.00140327628163
7.82300567539e-15
0.00140327628163
-3.26402935781e-15
0.00140327628163
3.49262710397e-15
0.00140327628163
-5.78235633755e-15
0.00140327628163
-4.14109603567e-15
0.00140327628163
-9.32754770206e-16
0.00140327628163
3.38114892793e-15
0.00140327628163
3.80162887345e-15
0.00140327628163
1.5803728675e-15
4.84521429807e-15
0.00136284997975
0.00103180966499
0.00141081105405
0.00066536726231
0.00142621841715
0.000372043431977
0.0014289793529
0.000130414489192
0.00142870176491
3.79545032444e-05
0.00142858099661
6.38340683216e-06
0.00142839674368
-1.79924045831e-06
0.00142838894038
-1.71813098955e-06
0.00142836775294
-1.19289473607e-06
0.00142837546099
-4.15075181259e-07
0.00142837398022
-1.8594168952e-07
0.0014283764489
-2.86818793816e-08
0.00142837617888
-1.06988022552e-08
0.0014283766514
5.67127065578e-09
0.00142837653487
1.27287117354e-09
0.00142837661102
2.0243364322e-09
0.00142837657435
2.63219019379e-10
0.00142837658785
3.25657270096e-10
0.00142837657907
-2.38600616995e-11
0.00142837658208
3.39721656357e-11
0.00142837658025
-1.93942163118e-11
0.00142837658099
3.44521406412e-12
0.00142837658063
-5.01295279081e-12
0.0014283765808
8.66409235894e-13
0.00142837658073
-9.30501473644e-13
0.00142837658076
3.00488884953e-13
0.00142837658075
-1.56401280603e-13
0.00142837658076
8.50333406081e-14
0.00142837658075
-2.88813647853e-14
0.00142837658076
2.06242363998e-14
0.00142837658075
-1.12439450795e-14
0.00142837658076
3.67860105169e-15
0.00142837658076
-1.48523087845e-15
0.00142837658075
1.36013111763e-15
0.00142837658075
-3.7188261222e-15
0.00142837658075
-2.12874773739e-15
0.00142837658075
-1.95993208209e-15
0.00142837658075
3.25015725558e-17
0.00142837658076
2.05248873826e-15
0.00142837658075
2.80320859774e-15
6.4784661549e-15
0.00135820132132
0.0008931205432
0.00141661102077
0.000606957560962
0.00144085465011
0.000347799799818
0.00144717903382
0.0001240901067
0.00144817261258
3.69609255937e-05
0.00144826174514
6.29427346899e-06
0.00144806008842
-1.59758402977e-06
0.00144799861793
-1.65666007978e-06
0.00144794586041
-1.14013719834e-06
0.0014479391043
-4.08319261971e-07
0.00144793249817
-1.79335517641e-07
0.00144793356732
-2.97509511173e-08
0.00144793307907
-1.02105836803e-08
0.00144793361862
5.13169702147e-09
0.00144793357324
1.31826778027e-09
0.00144793369209
1.90549789875e-09
0.00144793367232
2.82972109298e-10
0.00144793369209
3.05888294672e-10
0.00144793368467
-1.64297734031e-11
0.00144793368791
3.0731572265e-11
0.00144793368594
-1.74261784027e-11
0.00144793368659
2.79063765756e-12
0.00144793368616
-4.58319781676e-12
0.00144793368632
7.10743565688e-13
0.00144793368624
-8.41750709302e-13
0.00144793368628
2.60202894315e-13
0.00144793368626
-1.35967348016e-13
0.00144793368627
7.55029549013e-14
0.00144793368626
-2.45226411944e-14
0.00144793368627
1.38659699199e-14
0.00144793368627
-8.46223458567e-15
0.00144793368627
3.28010436521e-15
0.00144793368627
1.25488281971e-15
0.00144793368627
1.80579857093e-16
0.00144793368627
-4.45507911985e-16
0.00144793368627
-3.84875149635e-15
0.00144793368626
-5.78424426617e-15
0.00144793368626
9.28573675549e-16
0.00144793368627
-3.25549586914e-16
0.00144793368626
1.94101574195e-15
5.76640046274e-15
0.0013527887877
0.000759843953236
0.0014195875533
0.000540158795303
0.00145144386604
0.000315943484229
0.00146104143046
0.000114492542879
0.0014632462258
3.47561315315e-05
0.00146355004416
5.99045453185e-06
0.00146333829287
-1.38583317525e-06
0.00146322682775
-1.54519460089e-06
0.00146314389724
-1.05720659196e-06
0.00146312298367
-3.87405868387e-07
0.0014631113091
-1.6766094855e-07
0.00146311094698
-2.93887596868e-08
0.00146311022403
-9.48764936432e-09
0.00146311081777
4.53792114211e-09
0.00146311084023
1.29582080526e-09
0.00146311099995
1.74578908441e-09
0.00146311099701
2.85896964242e-10
0.00146311102294
2.79953944213e-10
0.00146311101696
-1.04506553218e-11
0.00146311102043
2.72609962502e-11
0.00146311101834
-1.53320965579e-11
0.00146311101891
2.21619489266e-12
0.00146311101843
-4.09899212332e-12
0.00146311101856
5.68914824847e-13
0.00146311101847
-7.47488740278e-13
0.00146311101851
2.21142189906e-13
0.00146311101849
-1.18374385479e-13
0.0014631110185
7.04762570091e-14
0.0014631110185
-2.000390222e-14
0.0014631110185
1.58398535804e-14
0.0014631110185
-7.97867830722e-15
0.0014631110185
-5.16869813297e-16
0.0014631110185
3.86605709826e-15
0.0014631110185
-1.30260026667e-15
0.0014631110185
1.62894144358e-15
0.0014631110185
-3.21358995671e-15
0.0014631110185
-2.88280353433e-15
0.0014631110185
3.49722043373e-15
0.0014631110185
-2.50082398208e-16
0.0014631110185
3.11610796745e-15
3.61708069172e-15
0.00134728316782
0.000632072981801
0.00142072261672
0.000466719348062
0.00145900125506
0.000277664843181
0.00147151765004
0.000101976147887
0.00147483554701
3.14382359084e-05
0.00147534784786
5.47815334605e-06
0.00147513149805
-1.16948388471e-06
0.00147497481172
-1.3885079995e-06
0.0014748639601
-9.46354812108e-07
0.00147482970567
-3.53151606703e-07
0.00147481320926
-1.5116455839e-07
0.00147481145314
-2.76325604532e-08
0.00147481049217
-8.52668805193e-09
0.00147481112886
3.90119792801e-09
0.00147481121376
1.21093585128e-09
0.00147481141142
1.54813825579e-09
0.00147481142452
2.72792637295e-10
0.00147481145629
2.48170351361e-10
0.00147481145176
-5.90654237856e-12
0.00147481145546
2.35549214045e-11
0.00147481145327
-1.31371134725e-11
0.00147481145376
1.72710109485e-12
0.00147481145322
-3.55809730097e-12
0.00147481145334
4.47877013935e-13
0.00147481145324
-6.41905830595e-13
0.00147481145328
1.83708532985e-13
0.00147481145326
-1.01482333286e-13
0.00147481145327
5.71881113127e-14
0.00147481145327
-1.35239447918e-14
0.00147481145327
9.71713540512e-15
0.00147481145327
-1.71998344778e-15
0.00147481145327
5.96765791656e-16
0.00147481145327
5.14641105516e-15
0.00147481145327
-5.13229636532e-16
0.00147481145327
4.197080764e-17
0.00147481145327
-2.03073099492e-15
0.00147481145327
-1.16419188141e-15
0.00147481145327
3.94291585288e-16
0.00147481145327
9.01425688965e-16
0.00147481145327
-9.3181285028e-16
2.63619134118e-15
0.0013421352976
0.000509449878277
0.00142074040094
0.000388114247881
0.00146430681099
0.000234098430733
0.0014793428602
8.69400981098e-05
0.00148364565139
2.71354460372e-05
0.00148435057212
4.77323252885e-06
0.00148413342292
-9.52335249123e-07
0.00148393715973
-1.19224463598e-06
0.00148380138892
-8.10583796103e-07
0.00148375505994
-3.06822749844e-07
0.00148373416296
-1.30267633399e-07
0.00148373111285
-2.45823917595e-08
0.00148372992384
-7.33766849758e-09
0.00148373059375
3.23125015811e-09
0.00148373073403
1.07066963167e-09
0.00148373096569
1.31648880479e-09
0.00148373099342
2.45057124801e-10
0.00148373103054
2.11050396519e-10
0.00148373102736
-2.72726669485e-12
0.00148373103129
1.96278787119e-11
0.00148373102901
-1.08610452694e-11
0.00148373102943
1.30302855179e-12
0.00148373102884
-2.98111447813e-12
0.00148373102895
3.35189835068e-13
0.00148373102884
-5.33596307792e-13
0.00148373102888
1.53616074703e-13
0.00148373102886
-8.44479629024e-14
0.00148373102887
4.80449625496e-14
0.00148373102887
-1.09765732617e-14
0.00148373102887
1.13887354438e-14
0.00148373102887
5.63911932345e-16
0.00148373102887
4.30290892953e-15
0.00148373102887
2.7253087871e-16
0.00148373102887
2.14548100484e-15
0.00148373102887
1.78027825932e-15
0.00148373102887
-1.92450992058e-16
0.00148373102887
2.34690201429e-15
0.00148373102887
-1.2728843403e-15
0.00148373102887
2.68782107767e-15
0.00148373102887
-2.36599525872e-15
-1.49236547851e-16
0.00133764346211
0.000391318608598
0.00142016929891
0.00030558841547
0.00146795250293
0.00018631522474
0.00148507865416
6.98139458326e-05
0.00149021490106
2.19992003365e-05
0.00149108840181
3.89973190504e-06
0.00149087274428
-7.36678272524e-07
0.00149064323504
-9.62735330012e-07
0.00149048618837
-6.53536905272e-07
0.00149042943828
-2.50072740623e-07
0.00149040471705
-1.05546481718e-07
0.00149040052836
-2.0393651109e-08
0.00149039913372
-5.94300858326e-09
0.00149039982859
2.53635720449e-09
0.00149040001587
8.8338567758e-10
0.00149040027667
1.05569905324e-09
0.00149040031711
2.04616476996e-10
0.00149040035887
1.69285468793e-10
0.00149040035689
-7.57641900239e-13
0.00149040036103
1.54934867745e-11
0.00149040035868
-8.51455123641e-12
0.00149040035904
9.46021162013e-13
0.00149040035842
-2.35768060684e-12
0.00149040035851
2.45573983109e-13
0.00149040035839
-4.20665384968e-13
0.00149040035843
1.17224717196e-13
0.00149040035841
-6.36944566738e-14
0.00149040035842
4.25475010177e-14
0.00149040035841
-4.20444227878e-15
0.00149040035842
9.2048530929e-15
0.00149040035842
1.622142406e-15
0.00149040035842
5.05326510348e-15
0.00149040035842
8.13797102174e-16
0.00149040035842
4.34526987955e-15
0.00149040035842
9.22137247918e-16
0.00149040035842
2.11183141503e-15
0.00149040035842
3.04434744285e-15
0.00149040035842
-4.27991194471e-15
0.00149040035842
2.26148802488e-15
0.00149040035842
-4.96959224847e-15
-1.16530885196e-15
0.00133400103599
0.000276829763635
0.0014193882734
0.000220201183333
0.00147037874542
0.000135324751246
0.00148914558126
5.10471085747e-05
0.00149494638679
1.61983958425e-05
0.00149595778405
2.88833496792e-06
0.00149574463692
-5.23531662437e-07
0.00149548874494
-7.06843381661e-07
0.00149531459529
-4.79387016055e-07
0.00149524939946
-1.84876948814e-07
0.00149522156191
-7.77090281286e-08
0.00149521643701
-1.52687095212e-08
0.00149521487017
-4.37613940438e-09
0.00149521558298
1.82350809778e-09
0.00149521580786
6.58502059794e-10
0.00149521609216
7.71411809249e-10
0.00149521614294
1.53837133993e-10
0.00149521618849
1.23732662154e-10
0.00149521618752
2.12381470554e-13
0.00149521619182
1.11979251667e-11
0.00149521618942
-6.11852064927e-12
0.00149521618973
6.38542193366e-13
0.00149521618908
-1.70741380719e-12
0.00149521618915
1.65935443277e-13
0.00149521618904
-3.03664349037e-13
0.00149521618907
8.24909789745e-14
0.00149521618905
-4.43362735687e-14
0.00149521618906
3.15866227268e-14
0.00149521618906
-2.80492477176e-15
0.00149521618906
1.01579466903e-14
0.00149521618906
2.44432053555e-15
0.00149521618906
2.98346662024e-15
0.00149521618906
-4.14197698308e-15
0.00149521618906
2.24578977766e-15
0.00149521618906
-1.47747760704e-15
0.00149521618906
9.48575056789e-16
0.00149521618906
4.72387676554e-15
0.00149521618906
-5.37526429033e-15
0.00149521618906
-1.23268100656e-15
0.00149521618906
-2.490971891e-15
-3.30301664412e-16
0.00133132975646
0.000165012197619
0.00141866090969
0.00013287003591
0.0014719019722
8.208368781e-05
0.00149184763609
3.1101443012e-05
0.00149813149886
9.91453388219e-06
0.00149924499486
1.77483944437e-06
0.00149903436901
-3.12906253952e-07
0.00149875935615
-4.31830631464e-07
0.0014985726914
-2.92722049271e-07
0.00149850127909
-1.13464642956e-07
0.00149847113848
-4.75685191941e-08
0.0014984653173
-9.44750180281e-09
0.0014984636207
-2.67950978646e-09
0.00149846434554
1.0986562522e-09
0.00149846459782
4.06210189268e-10
0.00149846489937
4.69875836606e-10
0.00149846495778
9.54250428572e-11
0.00149846500613
7.53808643538e-11
0.00149846500591
4.32143021771e-13
0.00149846501033
6.76964695234e-12
0.0014984650079
-3.68398950141e-12
0.00149846500817
3.68747197229e-13
0.0014984650075
-1.03272523297e-12
0.00149846500757
9.66851876085e-14
0.00149846500744
-1.81466483686e-13
0.00149846500748
5.22898337862e-14
0.00149846500746
-2.31336709675e-14
0.00149846500747
1.838911378e-14
0.00149846500746
1.52789939598e-15
0.00149846500747
8.58375241782e-15
0.00149846500747
5.31241695471e-15
0.00149846500747
1.96705366116e-15
0.00149846500747
8.17083298499e-16
0.00149846500747
5.3024292484e-15
0.00149846500747
1.87140381821e-15
0.00149846500747
-6.24616003753e-16
0.00149846500747
1.11297592958e-16
0.00149846500747
-6.13184358302e-15
0.00149846500747
-2.47525081288e-15
0.00149846500747
-4.94658987795e-15
-7.58929541809e-17
0.00132970236447
5.48220223793e-05
0.00141815957919
4.4412827147e-05
0.00147273469751
2.75085691244e-05
0.00149339002775
1.04461109754e-05
0.001499966974
3.33758818815e-06
0.00150114315723
5.98656790076e-07
0.00150093433638
-1.04085759985e-07
0.00150064774183
-1.45236259089e-07
0.00150045344814
-9.8428171685e-08
0.00150037823198
-3.82484360919e-08
0.00150034667835
-1.60149828413e-08
0.00150034042825
-3.19739435421e-09
0.00150033865106
-9.02276910476e-10
0.00150033938278
3.66927355951e-10
0.00150033965171
1.37259448316e-10
0.00150033996379
1.57814113765e-10
0.00150034002689
3.23249658688e-11
0.00150034007696
2.53065758503e-11
0.00150034007719
1.91463197046e-13
0.0015003400817
2.26526121305e-12
0.00150034007925
-1.22832678829e-12
0.0015003400795
1.18660052681e-13
0.00150034007881
-3.45561586419e-13
0.00150034007887
3.67883791957e-14
0.00150034007875
-6.05500955175e-14
0.00150034007878
1.96547292496e-14
0.00150034007876
-2.05293669047e-15
0.00150034007877
5.84681429298e-15
0.00150034007877
1.71366131219e-15
0.00150034007877
5.26556381417e-15
0.00150034007877
6.32483202372e-15
0.00150034007877
3.04168648411e-15
0.00150034007877
5.29328210328e-16
0.00150034007877
3.51506978595e-15
0.00150034007877
1.90716436322e-15
0.00150034007877
-1.43143745368e-15
0.00150034007877
-2.13753003169e-15
0.00150034007877
-6.54018316634e-15
0.00150034007877
-4.04169309915e-15
0.00150034007877
-5.52208539528e-15
-1.4554473177e-15
0.00132915622418
-5.48220129207e-05
0.00141798188093
-4.44128238114e-05
0.00147299902613
-2.75085759212e-05
0.00149389124684
-1.04461115383e-05
0.00150056642018
-3.33758485793e-06
0.00150176373468
-5.98657065765e-07
0.00150155556423
1.04084441659e-07
0.001501265091
1.45236735975e-07
0.00150106823428
9.84287011663e-08
0.00150099173778
3.82481343267e-08
0.00150095970791