/*--------------------------------*- C++ -*----------------------------------*\
| =========                 |                                                 |
| \\      /  F ield         | OpenFOAM: The Open Source CFD Toolbox           |
|  \\    /   O peration     | Version:  2112                                  |
|   \\  /    A nd           | Website:  www.openfoam.com                      |
|    \\/     M anipulation  |                                                 |
\*---------------------------------------------------------------------------*/
FoamFile
{
    version     2.0;
    format      ascii;
    arch        "LSB;label=32;scalar=64";
    class       volScalarField;
    location    "1";
    object      phiE;
}
// * * * * * * * * * * * * * * * * * * * * * * * * * * * * * * * * * * * * * //

dimensions      [1 2 -3 0 0 -1 0];

internalField   nonuniform List<scalar> 
1681
(
0.493889946328
0.493889512329
0.493889478727
0.493889725908
0.493889478884
0.493889449769
0.493888613031
0.493888585002
0.493888571654
0.493888513971
0.493886818567
0.493886755099
0.493886699975
0.493885686233
0.493885631259
0.493885574493
0.493884418767
0.49388434999
0.493883886136
0.493883863752
0.493883856545
0.493883829281
0.49388314102
0.493883096871
0.493882506884
0.493882491814
0.493882501069
0.493882527592
0.493882847542
0.493882874932
0.493882885199
0.493882850562
0.493881489438
0.493881436092
0.493880878325
0.493880843116
0.493880075956
0.493880073153
0.493880328046
0.493880367837
0.49388041708
0.481693665771
0.481692991174
0.48169289194
0.4816930955
0.481692895439
0.481692846271
0.481692190076
0.481692131614
0.481692093859
0.481691984314
0.481690670681
0.481690534852
0.481690407569
0.481689608158
0.481689482789
0.481689356061
0.481688448097
0.481688299999
0.48168792314
0.481687872439
0.4816878521
0.481687795874
0.481687264592
0.481687177671
0.481686729361
0.481686703264
0.481686730763
0.481686799102
0.481687078415
0.48168714642
0.481687177509
0.481687124615
0.481686105408
0.481686009675
0.481685593366
0.481685534344
0.481684963315
0.481684971332
0.481685166912
0.481685275167
0.481685426724
0.469497513618
0.469496695549
0.469496538576
0.469496716555
0.469496546578
0.469496495043
0.469495971984
0.469495897433
0.469495838766
0.469495708459
0.469494680641
0.469494505103
0.469494333278
0.469493693101
0.469493525604
0.469493358088
0.469492634917
0.469492444743
0.469492131478
0.469492063287
0.469492032054
0.469491961632
0.469491549473
0.469491445404
0.469491105089
0.469491078583
0.469491123265
0.46949122217
0.46949147507
0.469491572224
0.469491623629
0.469491576618
0.469490820096
0.469490716162
0.46949040994
0.469490351996
0.469489931031
0.469489957816
0.469490104395
0.469490271036
0.469490496853
0.457301558103
0.457300682677
0.457300479017
0.457300642713
0.457300491021
0.457300444233
0.457300019178
0.45729993713
0.457299860887
0.457299723638
0.457298910544
0.45729871591
0.4572985191
0.457297998333
0.457297807992
0.457297618978
0.457297034714
0.457296825943
0.457296559884
0.457296481332
0.457296441385
0.457296364976
0.457296043497
0.457295936248
0.45729567832
0.457295657006
0.45729571641
0.457295835764
0.457296070212
0.45729618757
0.457296256926
0.457296225064
0.457295670152
0.457295575703
0.457295355139
0.457295310763
0.457295003848
0.457295052766
0.457295156153
0.457295371213
0.457295630431
0.445105810066
0.445104943514
0.445104704446
0.445104861257
0.445104719622
0.445104680482
0.44510432739
0.445104243056
0.445104152352
0.44510401513
0.445103363913
0.445103163181
0.445102954689
0.445102524332
0.445102323892
0.4451021261
0.445101647019
0.445101434158
0.445101203707
0.445101119457
0.445101072675
0.445100994957
0.445100742459
0.445100639613
0.445100444396
0.44510043073
0.445100501506
0.445100633329
0.4451008533
0.445100983846
0.445101067623
0.445101053848
0.445100653047
0.445100576832
0.445100422567
0.445100397731
0.44510017649
0.445100248539
0.445100312214
0.445100566109
0.445100824034
0.432910259999
0.432909449069
0.432909184828
0.432909339531
0.432909202261
0.432909171635
0.432908871225
0.432908787715
0.432908685388
0.432908551815
0.432908023119
0.432907824326
0.432907612943
0.432907251758
0.432907049411
0.432906851066
0.432906452244
0.432906243922
0.432906040789
0.432905953865
0.432905901796
0.432905825346
0.4329056252
0.432905530519
0.432905382836
0.432905377338
0.432905455865
0.43290559404
0.432905801187
0.432905939381
0.432906033637
0.432906037727
0.432905754066
0.432905699597
0.432905596233
0.432905593146
0.432905435277
0.43290553009
0.432905556551
0.432905840404
0.432906071665
0.420714889659
0.420714164605
0.420713883821
0.420714039334
0.420713902531
0.420713880234
0.420713618256
0.420713537343
0.420713425908
0.420713297811
0.420712862278
0.420712670202
0.420712461561
0.420712153903
0.420711954743
0.420711760993
0.420711423923
0.420711224948
0.420711043151
0.420710955494
0.420710899389
0.420710825504
0.420710664959
0.420710579895
0.42071046802
0.420710470081
0.420710552896
0.420710692788
0.420710887524
0.420711028986
0.42071112987
0.420711150013
0.420710954763
0.420710922469
0.420710857767
0.420710876456
0.420710764555
0.420710880958
0.420710872493
0.420711178373
0.420711366349
0.408519677312
0.408519055357
0.408518764892
0.408518922784
0.408518783819
0.408518769111
0.408518535061
0.408518457663
0.408518339299
0.408518217497
0.408517853194
0.408517670482
0.408517468034
0.408517202311
0.408517009358
0.408516823256
0.408516534138
0.408516346876
0.408516182055
0.408516094891
0.408516035756
0.408515964969
0.408515834258
0.408515758898
0.408515673772
0.408515682193
0.408515766232
0.408515904357
0.408516086528
0.408516227815
0.408516331855
0.408516365517
0.408516236415
0.408516224987
0.408516189242
0.408516228523
0.408516149141
0.408516285508
0.408516244585
0.408516565644
0.408516700932
0.396324600489
0.396324089013
0.39632379402
0.396323954875
0.396323812021
0.396323803888
0.396323590057
0.396323516547
0.39632339311
0.396323277844
0.39632296835
0.396322796271
0.39632260199
0.396322369556
0.396322184468
0.396322007662
0.396321756161
0.396321581456
0.396321430394
0.396321344488
0.396321283132
0.396321215534
0.396321107196
0.39632104087
0.396320975501
0.39632098884
0.396321071546
0.396321205326
0.396321374602
0.396321513045
0.396321617285
0.396321661721
0.39632158157
0.396321588804
0.396321574351
0.39632163243
0.396321575304
0.396321729793
0.396321659216
0.396321989739
0.396322068528
0.384129637512
0.38412923675
0.384128940853
0.384129104546
0.384128956722
0.384128954038
0.384128754801
0.384128685211
0.38412855826
0.38412844944
0.38412818244
0.38412802139
0.384127836267
0.384127630624
0.38412745418
0.384127287391
0.384127065729
0.384126903513
0.384126763818
0.384126679636
0.384126616712
0.384126552159
0.384126460517
0.38412640218
0.384126351194
0.384126367981
0.38412644733
0.384126574906
0.384126731001
0.384126864575
0.384126966615
0.38412701916
0.384126974731
0.384126998062
0.384126998877
0.384127073724
0.384127031142
0.384127201847
0.384127104772
0.384127440154
0.384127462761
0.371934768344
0.371934473556
0.371934179093
0.371934345
0.3719341916
0.371934193221
0.371934004512
0.37193393867
0.371933809504
0.371933706862
0.371933473098
0.371933322933
0.371933147319
0.371932963543
0.371932795973
0.371932639327
0.371932441628
0.371932291319
0.371932161189
0.371932079009
0.371932015056
0.371931953295
0.37193187405
0.371931822527
0.371931781811
0.371931800682
0.371931875155
0.371931995239
0.37193213802
0.371932265243
0.371932363224
0.371932421456
0.371932402618
0.371932439444
0.371932450824
0.371932540388
0.371932506675
0.371932691722
0.371932571598
0.37193290827
0.371932877925
0.35973997503
0.359739778202
0.359739486489
0.359739653653
0.359739494426
0.359739499252
0.35973931817
0.35973925579
0.359739125484
0.359739028659
0.359738821155
0.35973868142
0.359738515265
0.359738349591
0.359738190795
0.359738044053
0.35973786585
0.359737726611
0.359737604676
0.359737524664
0.359737460129
0.359737400879
0.359737330798
0.35973728493
0.35973725136
0.359737271123
0.359737339658
0.359737451422
0.359737580949
0.359737700794
0.359737793346
0.359737855167
0.35973785421
0.359737902076
0.359737920379
0.359738022709
0.359737993796
0.359738191404
0.359738051871
0.359738387181
0.359738309054
0.34754524187
0.347545133017
0.347544844604
0.347545011864
0.347544846833
0.347544853842
0.347544678362
0.347544619104
0.347544488549
0.347544397143
0.347544210629
0.3475440807
0.347543923717
0.34754377324
0.347543622928
0.347543485641
0.347543323528
0.347543194423
0.347543079636
0.347543001888
0.347542937153
0.347542880146
0.34754281682
0.347542775545
0.347542746773
0.347542766444
0.347542828367
0.347542931352
0.34754304788
0.347543159698
0.347543245884
0.347543309542
0.347543320641
0.347543377335
0.347543399774
0.347543513072
0.347543486145
0.347543694646
0.347543539431
0.347543871507
0.347543751941
0.33535055542
0.335350523566
0.335350238476
0.335350404571
0.335350233982
0.335350242248
0.335350071001
0.335350014509
0.335349884446
0.335349798059
0.335349628545
0.335349507727
0.335349359499
0.335349221953
0.335349079743
0.335348951356
0.335348802719
0.335348682814
0.335348574366
0.335348498942
0.335348434339
0.335348379347
0.335348321
0.335348283393
0.335348257682
0.335348276483
0.335348331451
0.335348425489
0.33534852945
0.335348632902
0.335348712149
0.33534877623
0.335348795025
0.335348858621
0.335348883088
0.335349005727
0.335348978942
0.335349196784
0.335349029586
0.335349357193
0.33534920312
0.323155904415
0.323155938308
0.323155656245
0.323155819895
0.323155644171
0.323155652878
0.323155484992
0.323155430922
0.32315530197
0.323155220219
0.323155064678
0.323154952263
0.323154812316
0.323154685917
0.323154551393
0.323154431312
0.323154294138
0.323154182552
0.323154079817
0.323154006756
0.32315394258
0.323153889421
0.323153834768
0.323153800056
0.323153776148
0.3231537935
0.323153841432
0.323153926584
0.323154018558
0.323154113553
0.323154185587
0.32315424899
0.323154272256
0.32315434111
0.323154366044
0.32315449656
0.323154468806
0.323154694546
0.323154518941
0.323154841328
0.323154659831
0.31096127961
0.310961368237
0.310961088759
0.310961248725
0.310961068446
0.310961076889
0.310960911864
0.3109608599
0.310960732583
0.310960655111
0.310960511243
0.310960406549
0.310960274398
0.31096015773
0.310960030476
0.310959918113
0.310959790841
0.31095968678
0.310959589271
0.310959518604
0.31095945512
0.310959403664
0.310959351791
0.310959319351
0.31095929636
0.31095931186
0.310959352883
0.310959429389
0.310959510066
0.310959596713
0.310959661499
0.310959723399
0.310959748786
0.310959821521
0.310959845791
0.310959982864
0.310959953573
0.310960185853
0.310960005212
0.310960321983
0.310960119967
0.298766673589
0.298766806528
0.298766529182
0.298766684313
0.298766500187
0.298766507776
0.298766345392
0.298766295257
0.298766170025
0.298766096513
0.298765962568
0.298765864958
0.298765740136
0.298765632063
0.298765511685
0.298765406481
0.298765287898
0.29876519066
0.298765097998
0.298765029757
0.298764967206
0.298764917368
0.298764867646
0.298764836995
0.298764814323
0.298764827724
0.298764862121
0.29876493035
0.298765000503
0.298765079062
0.298765136748
0.298765196554
0.298765222384
0.298765297859
0.298765320675
0.298765463103
0.298765432098
0.29876566963
0.29876548705
0.298765798034
0.298765582004
0.286572080545
0.28657224819
0.286571972619
0.286572121885
0.286571934731
0.286571940988
0.286571781235
0.286571732695
0.286571609941
0.286571540107
0.286571414754
0.286571323647
0.286571205723
0.286571105325
0.286570991463
0.286570892905
0.286570782063
0.286570691044
0.286570602934
0.286570537148
0.286570475755
0.286570427489
0.286570379505
0.28657035028
0.286570327554
0.286570338736
0.286570366905
0.286570427322
0.286570487773
0.286570558614
0.286570609488
0.286570666803
0.286570691911
0.286570769184
0.286570790019
0.286570936697
0.286570904069
0.286571145605
0.286570963869
0.286571269019
0.28657104492
0.27437749607
0.274377689763
0.27437741578
0.274377558289
0.274377369021
0.274377373572
0.2743772166
0.274377169466
0.274377049543
0.274376983141
0.27437686537
0.274376780248
0.274376668833
0.274376575361
0.274376467694
0.27437637532
0.274376271475
0.274376186159
0.274376102372
0.274376039076
0.274375979044
0.274375932341
0.274375885842
0.274375857786
0.274375834802
0.274375843746
0.274375866164
0.274375919295
0.274375970892
0.274376034463
0.27437607891
0.27437613349
0.274376157099
0.274376235396
0.274376253929
0.27437640382
0.274376369837
0.274376614155
0.274376435696
0.274376734998
0.274376508124
0.262182916951
0.262183129039
0.262182856669
0.262182991684
0.262182801291
0.262182803864
0.262182649937
0.262182604069
0.262182487295
0.26218242412
0.262182313166
0.262182233571
0.262182128324
0.262182041165
0.262181939409
0.26218185281
0.262181755377
0.262181675331
0.262181595689
0.262181534919
0.26218147644
0.262181431316
0.262181386166
0.262181359109
0.262181335788
0.26218134256
0.262181359749
0.26218140616
0.262181449751
0.26218150655
0.262181545019
0.262181596743
0.262181618365
0.262181697043
0.262181713109
0.262181865229
0.262181830259
0.262182076143
0.262181903035
0.262182196445
0.262181971384
0.249988340962
0.249988564802
0.249988294308
0.249988421245
0.249988230778
0.249988231195
0.249988080663
0.249988035964
0.249987922635
0.249987862517
0.249987757806
0.249987683338
0.249987583964
0.249987502612
0.249987406524
0.249987325342
0.249987233857
0.249987158721
0.249987083088
0.249987024881
0.249986968133
0.249986924622
0.249986880775
0.249986854614
0.249986830973
0.249986835697
0.249986848206
0.249986888478
0.249986924896
0.249986975446
0.249987008425
0.249987057259
0.249987076623
0.249987155142
0.249987168692
0.249987322093
0.249987286551
0.249987532782
0.249987366735
0.249987654125
0.249987434751
0.237793766673
0.237793996599
0.237793728485
0.237793846915
0.237793657469
0.237793655638
0.237793508907
0.237793465326
0.23779335572
0.237793298523
0.237793199627
0.237793129942
0.237793036191
0.237792960228
0.237792869596
0.237792793523
0.237792707619
0.237792637096
0.237792565368
0.237792509762
0.237792454907
0.237792413062
0.237792370529
0.237792345217
0.237792321339
0.237792324183
0.237792332565
0.23779236728
0.237792397329
0.237792442163
0.237792470155
0.237792516129
0.237792533119
0.237792611017
0.237792622089
0.237792775845
0.237792740157
0.237792985502
0.237792827875
0.237793109002
0.237792898485
0.225599193289
0.225599424551
0.225599159552
0.225599269193
0.225599081888
0.225599077798
0.225598935316
0.225598892838
0.225598787219
0.225598732839
0.225598639444
0.225598574249
0.225598485913
0.225598414992
0.225598329638
0.225598258408
0.225598177792
0.225598111638
0.225598043736
0.225597990771
0.225597937961
0.225597897839
0.225597856677
0.225597832207
0.22559780822
0.225597809379
0.225597814182
0.225597843908
0.225597868352
0.225597907994
0.225597931503
0.22559797469
0.225597989303
0.225598066174
0.225598074865
0.225598228068
0.225598192638
0.225598435851
0.225598287669
0.225598562156
0.225598362993
0.213404620507
0.213404849192
0.213404588254
0.213404688961
0.213404504929
0.213404498638
0.213404360872
0.213404319522
0.213404218143
0.213404166503
0.213404078385
0.213404017432
0.213403934338
0.213403868171
0.213403787945
0.213403721332
0.213403645772
0.213403583788
0.213403519654
0.213403469368
0.213403418739
0.213403380406
0.213403340697
0.213403317093
0.213403293155
0.213403292844
0.213403294594
0.213403319877
0.213403339435
0.213403374391
0.213403393908
0.213403434406
0.213403446714
0.213403522192
0.213403528642
0.213403680397
0.213403645593
0.213403885412
0.213403747393
0.213404014721
0.213403828786
0.201210048376
0.201210271326
0.201210015573
0.201210107325
0.201209927693
0.201209919323
0.201209786751
0.201209746585
0.201209649687
0.201209600739
0.201209517743
0.201209460825
0.201209382833
0.201209321182
0.201209245956
0.20120918377
0.201209113079
0.201209055103
0.201208994695
0.201208947123
0.201208898804
0.201208862324
0.201208824169
0.201208801476
0.201208777761
0.201208776199
0.201208775398
0.201208796754
0.201208812094
0.201208842844
0.20120885884
0.201208896756
0.201208906887
0.20120898063
0.201208985009
0.201209134427
0.20120910057
0.201209335723
0.201209208306
0.20120946782
0.201209296417
0.189015477188
0.189015691902
0.189015442605
0.189015525494
0.189015351368
0.189015341095
0.189015214194
0.189015175296
0.189015083113
0.189015036828
0.189014958853
0.189014905798
0.189014832798
0.189014775464
0.189014705135
0.189014647214
0.189014581243
0.189014527146
0.189014470432
0.189014425609
0.189014379714
0.189014345153
0.18901430866
0.189014286936
0.189014263626
0.189014261033
0.189014258151
0.189014276062
0.189014287798
0.18901431479
0.189014327709
0.189014363151
0.189014371264
0.189014442948
0.189014445442
0.189014591645
0.189014559005
0.189014788215
0.189014671595
0.189014922512
0.189014766438
0.176820907383
0.17682111193
0.17682087047
0.176820944684
0.176820777137
0.176820765186
0.176820644418
0.176820606898
0.176820519651
0.176820476025
0.176820403008
0.176820353677
0.176820285583
0.176820232403
0.176820166882
0.176820113092
0.176820051721
0.176820001397
0.176819948357
0.176819906314
0.176819862948
0.176819830368
0.176819795648
0.17681977496
0.176819752238
0.176819748827
0.176819744298
0.176819759211
0.176819767905
0.17681979155
0.176819801805
0.176819834874
0.176819841148
0.176819910457
0.176819911263
0.176820053381
0.176820022177
0.176820244171
0.176820138331
0.176820379763
0.176820239371
0.164626339482
0.164626532412
0.164626300239
0.164626366052
0.164626206107
0.164626192741
0.164626078553
0.16462604254
0.164625960442
0.164625919483
0.164625851396
0.164625805678
0.164625742421
0.164625693261
0.164625632477
0.164625582707
0.164625525839
0.164625479204
0.164625429824
0.164625390588
0.164625349845
0.164625319304
0.164625286468
0.164625266885
0.164625244929
0.164625240904
0.164625235126
0.164625247449
0.164625253608
0.164625274282
0.164625282251
0.164625313038
0.16462531766
0.164625384282
0.164625383601
0.164625520781
0.164625491184
0.164625704699
0.164625609447
0.164625840418
0.164625715681
0.15243177402
0.152431954279
0.152431732876
0.152431790631
0.152431639252
0.152431624768
0.152431517579
0.15243148322
0.152431406469
0.152431368204
0.152431305039
0.152431262847
0.152431204378
0.152431159126
0.15243110302
0.152431057177
0.152431004735
0.152430961722
0.152430915993
0.15243087959
0.152430841555
0.152430813105
0.15243078226
0.152430763849
0.15243074283
0.15243073838
0.152430731717
0.152430741819
0.1524307459
0.152430763939
0.152430769969
0.152430798546
0.15243080171
0.152430865333
0.152430863367
0.152430994771
0.152430966911
0.152431170708
0.152431085707
0.152431305179
0.152431195751
0.140237211491
0.140237378346
0.140237169192
0.140237219291
0.140237077368
0.140237062088
0.140236962289
0.140236929743
0.140236858526
0.140236822991
0.140236764759
0.140236726024
0.140236672307
0.140236630874
0.140236579397
0.140236537405
0.140236489326
0.14023644988
0.140236407799
0.140236374251
0.140236338999
0.140236312689
0.140236283934
0.140236266762
0.140236246838
0.14023624214
0.140236234918
0.140236243129
0.140236245541
0.140236261242
0.140236265649
0.140236292071
0.140236293965
0.140236354278
0.140236351231
0.140236476039
0.14023645001
0.140236642882
0.140236567686
0.140236774584
0.140236679863
0.12804265232
0.128042805288
0.12804260982
0.128042652713
0.128042521058
0.128042505323
0.128042413269
0.128042382703
0.128042317191
0.128042284434
0.128042231155
0.128042195829
0.128042146836
0.128042109151
0.128042062263
0.128042024059
0.128041980292
0.128041944371
0.128041905936
0.128041875261
0.12804184286
0.12804181873
0.128041792159
0.128041776288
0.128041757607
0.128041752819
0.12804174533
0.128041751946
0.12804175305
0.128041766675
0.128041769741
0.128041794043
0.128041794857
0.128041851545
0.128041847619
0.128041965037
0.128041940907
0.128042121688
0.128042055771
0.128042249007
0.128042168187
0.11584809684
0.115848235626
0.115848055211
0.115848091386
0.115847970717
0.115847954883
0.11584787089
0.115847842478
0.115847782826
0.115847752901
0.115847704602
0.11584767265
0.115847628363
0.115847594368
0.115847552036
0.115847517571
0.115847478075
0.115847445645
0.115847410856
0.11584738307
0.11584735358
0.115847331666
0.115847307364
0.11584729285
0.115847275546
0.115847270811
0.115847263314
0.115847268594
0.115847268707
0.115847280484
0.115847282462
0.115847304663
0.115847304578
0.115847357326
0.115847352725
0.115847461984
0.115847439801
0.115847607377
0.115847550161
0.115847728663
0.115847660784
0.103653545273
0.103653669718
0.103653505616
0.103653535591
0.103653426532
0.103653410959
0.103653335303
0.103653309221
0.103653255566
0.103653228533
0.103653185244
0.103653156644
0.10365311705
0.103653086701
0.103653048897
0.103653018131
0.103652982872
0.103652953906
0.103652922766
0.103652897881
0.103652871355
0.103652851688
0.103652829731
0.103652816624
0.103652800818
0.103652796262
0.103652788985
0.103652793155
0.103652792556
0.103652802679
0.103652803794
0.103652823892
0.103652823087
0.10365287158
0.103652866507
0.103652966869
0.103652946674
0.103653099987
0.103653050869
0.103653213601
0.103653157598
0.0914589977185
0.0914591077487
0.0914589610867
0.0914589854033
0.0914588884752
0.091458873526
0.0914588064395
0.0914587828619
0.0914587353222
0.0914587112439
0.091458672995
0.0914586477345
0.0914586128254
0.091458586088
0.0914585527894
0.0914585256912
0.0914584946405
0.091458469118
0.0914584416296
0.0914584196568
0.0914583961401
0.0914583787442
0.0914583592018
0.0914583475457
0.0914583333459
0.0914583290804
0.0914583222186
0.0914583254755
0.0914583244052
0.0914583330352
0.0914583334907
0.0914583514659
0.0914583501145
0.0914583940391
0.0914583886984
0.0914584794605
0.0914584612888
0.0914585993503
0.0914585577238
0.0914587037115
0.0914586584516
0.0792644541527
0.0792645497419
0.0792644214865
0.0792644407045
0.0792643563216
0.0792643423547
0.0792642840246
0.079264263123
0.0792642217975
0.0792642007386
0.0792641675572
0.0792641456326
0.0792641154011
0.0792640922511
0.0792640634379
0.0792640399832
0.0792640131184
0.0792639910229
0.0792639671894
0.0792639481366
0.0792639276697
0.0792639125653
0.0792638954982
0.0792638853302
0.0792638728303
0.0792638689504
0.0792638626739
0.0792638651841
0.0792638638484
0.07926387112
0.0792638710939
0.079263886912
0.0792638851846
0.0792639242283
0.0792639188306
0.0792639993232
0.0792639832179
0.0792641051107
0.0792640703882
0.079264198737
0.0792641630581
0.0670699144412
0.0670699955776
0.0670698865087
0.0670699012012
0.0670698296697
0.0670698170343
0.0670697676015
0.0670697495413
0.0670697145075
0.0670696965326
0.0670696684415
0.0670696498557
0.0670696242959
0.0670696047165
0.0670695803716
0.0670695605427
0.0670695378447
0.0670695191639
0.0670694989886
0.0670694828618
0.0670694654796
0.0670694526821
0.0670694381432
0.0670694294946
0.0670694187757
0.0670694153621
0.0670694098143
0.0670694117173
0.067069410291
0.0670694163112
0.0670694159619
0.0670694295729
0.0670694276379
0.0670694614922
0.0670694562531
0.0670695258453
0.0670695118619
0.0670696167476
0.0670695883789
0.0670696982941
0.0670696710313
0.0548753783414
0.0548754450024
0.054875355688
0.0548753664373
0.0548753079546
0.0548752969855
0.0548752565446
0.0548752414823
0.0548752127963
0.0548751979686
0.0548751749842
0.0548751597455
0.0548751388514
0.0548751228323
0.0548751029405
0.054875086725
0.054875068178
0.0548750529027
0.0548750363891
0.0548750231924
0.0548750089244
0.0548749984455
0.0548749864803
0.054874979376
0.0548749705068
0.0548749676265
0.0548749629259
0.0548749643363
0.054874962965
0.0548749678157
0.0548749672834
0.0548749786241
0.0548749766489
0.0548750050103
0.0548750001528
0.0548750582527
0.0548750464663
0.0548751335898
0.054875111078
0.0548752018817
0.0548751818923
0.0426808455114
0.0426808976439
0.042680828416
0.0426808358091
0.0426807904651
0.0426807814782
0.0426807500767
0.0426807381582
0.0426807158538
0.0426807042338
0.0426806863652
0.042680674486
0.0426806582506
0.0426806457871
0.0426806303347
0.042680617725
0.0426806033155
0.0426805914395
0.0426805785905
0.0426805683266
0.0426805571979
0.0426805490452
0.0426805396921
0.0426805341513
0.0426805271886
0.0426805248951
0.0426805211374
0.0426805221463
0.0426805209482
0.0426805246883
0.0426805240969
0.0426805330915
0.0426805312439
0.042680553815
0.0426805495712
0.0426805956275
0.0426805861382
0.0426806548316
0.0426806377475
0.0426807088934
0.0426806950748
0.0304863155311
0.0304863530395
0.0304863039695
0.0304863085921
0.0304862763719
0.0304862696601
0.0304862472987
0.0304862386573
0.0304862227456
0.0304862143901
0.030486201638
0.0304861931338
0.0304861815484
0.0304861726407
0.0304861616153
0.0304861526078
0.0304861423245
0.0304861338439
0.0304861246623
0.0304861173324
0.0304861093636
0.0304861035417
0.030486096832
0.0304860928685
0.0304860878571
0.0304860861916
0.0304860834507
0.0304860841267
0.0304860831949
0.0304860858615
0.0304860853203
0.0304860918817
0.0304860903308
0.0304861068217
0.0304861034339
0.0304861369366
0.0304861298748
0.0304861795598
0.0304861675543
0.0304862186415
0.0304862099435
0.0182917879277
0.0182918106689
0.0182917815425
0.0182917839702
0.0182917647582
0.0182917605871
0.0182917472204
0.0182917419749
0.0182917324444
0.0182917274055
0.0182917197616
0.01829171465
0.0182917077042
0.0182917023568
0.0182916957466
0.0182916903416
0.018291684175
0.0182916790882
0.018291673576
0.0182916691806
0.0182916643881
0.0182916608984
0.0182916568567
0.0182916544792
0.0182916514528
0.0182916504445
0.0182916487733
0.0182916491639
0.0182916485677
0.0182916501772
0.018291649782
0.0182916538129
0.0182916527297
0.0182916628591
0.0182916605805
0.0182916810613
0.018291676592
0.0182917067825
0.0182916995968
0.018291730382
0.0182917258128
0.00609726219331
0.00609726997969
0.00609726027128
0.00609726105563
0.00609725464075
0.00609725324532
0.00609724878244
0.00609724703585
0.00609724385232
0.00609724217647
0.00609723962345
0.00609723792366
0.00609723560473
0.00609723382571
0.0060972316198
0.00609722982091
0.00609722776329
0.00609722607051
0.00609722422947
0.00609722276783
0.00609722116405
0.00609722000546
0.00609721864975
0.00609721786187
0.00609721684314
0.00609721650969
0.00609721594112
0.0060972160736
0.0060972158591
0.00609721640832
0.00609721624258
0.00609721763592
0.00609721719425
0.00609722069014
0.00609721978548
0.00609722681768
0.00609722514423
0.00609723544718
0.00609723292188
0.00609724333065
0.00609724195593
)
;

boundaryField
{
    in
    {
        type            zeroGradient;
    }
    out
    {
        type            zeroGradient;
    }
    top
    {
        type            fixedValue;
        value           uniform 0;
    }
    bottom
    {
        type            fixedValue;
        value           nonuniform List<scalar> 
41
(
0.499988039652
0.499987758152
0.499987758152
0.499988039652
0.499987758152
0.499987758152
0.499986803443
0.499986803443
0.499986803443
0.499986803443
0.499984859594
0.499984859594
0.499984859594
0.499983699223
0.499983699223
0.499983699223
0.499982376388
0.499982376388
0.499981852438
0.499981852438
0.499981852438
0.499981852438
0.499981060976
0.499981060976
0.499980379489
0.499980379489
0.499980379489
0.499980379489
0.4999807334
0.4999807334
0.4999807334
0.4999807334
0.499979154272
0.499979154272
0.499978506919
0.499978506919
0.499977613963
0.499977613963
0.499977908658
0.499977908658
0.499977908658
)
;
    }
    frontback
    {
        type            empty;
    }
}


// ************************************************************************* //
