/*--------------------------------*- C++ -*----------------------------------*\
| =========                 |                                                 |
| \\      /  F ield         | OpenFOAM: The Open Source CFD Toolbox           |
|  \\    /   O peration     | Version:  2112                                  |
|   \\  /    A nd           | Website:  www.openfoam.com                      |
|    \\/     M anipulation  |                                                 |
\*---------------------------------------------------------------------------*/
FoamFile
{
    version     2.0;
    format      ascii;
    arch        "LSB;label=32;scalar=64";
    class       volScalarField;
    location    "1";
    object      T;
}
// * * * * * * * * * * * * * * * * * * * * * * * * * * * * * * * * * * * * * //

dimensions      [0 0 0 1 0 0 0];

internalField   nonuniform List<scalar> 
1681
(
302.48657784
303.261781981
303.326044102
302.858374209
303.402181836
303.526495802
305.419253269
305.533865591
305.599200163
305.801090567
309.731615093
309.953963472
310.130379261
312.867796724
313.03450751
313.1854956
315.606168796
315.757699981
316.288864948
316.334350067
316.362272059
316.432463105
317.725702192
317.810002047
318.255474047
318.276399697
318.264767078
318.16018581
315.77625847
315.66786286
315.654023761
315.685834575
316.529649958
316.585202621
316.950113518
317.002992701
317.818189305
317.801149913
316.548692344
316.493435348
316.48490161
301.989582796
302.954301424
303.139635841
302.890771829
303.363759642
303.649435861
305.186994641
305.461345443
305.649936429
306.112641106
309.257279227
309.777148407
310.202586895
312.429146595
312.826608595
313.188576979
315.149896236
315.498195794
315.99216865
316.109811243
316.191192821
316.354771912
317.394384761
317.584327238
317.961898674
318.00891481
317.976412049
317.749689558
315.882512198
315.645002857
315.605469519
315.670407551
316.333170645
316.455837304
316.767544277
316.883292256
317.511744466
317.476373814
316.510063895
316.390541637
316.366478451
301.617681903
302.678663738
302.970584797
302.894432405
303.333233952
303.723218255
305.006188898
305.392556008
305.690111183
306.318729725
308.889791512
309.604697351
310.204159482
312.065072966
312.620676184
313.128986631
314.759455876
315.233497166
315.711063425
315.887079341
316.01721689
316.242895991
317.097934613
317.351725124
317.682065363
317.744945249
317.696038695
317.404163645
315.922932605
315.614447527
315.553108802
315.631777513
316.159037789
316.319492056
316.593396625
316.743821063
317.232522298
317.188753913
316.437445152
316.284158005
316.24747859
301.336659366
302.434854642
302.816442335
302.877804069
303.305316192
303.76254394
304.862527998
305.327932625
305.717849086
306.449540111
308.599054741
309.438015542
310.157253296
311.75518699
312.417691444
313.026344058
314.417108679
314.969712346
315.442890638
315.666832896
315.840125971
316.107079637
316.826806917
317.11698406
317.413735948
317.486001817
317.42570359
317.105541384
315.915771543
315.574337567
315.495759123
315.576235852
316.00067523
316.179538167
316.425118545
316.591906668
316.975557303
316.929531988
316.340929272
316.173636111
316.127646355
301.122219013
302.221100009
302.675544508
302.847038014
303.277091115
303.777654758
304.745781354
305.267267517
305.733119898
306.526417576
308.363648896
309.277813058
310.077591874
311.485098189
312.218410538
312.894642229
314.110500105
314.710547093
315.185875202
315.449569284
315.660313373
315.954684557
316.574440207
316.883212471
317.15544963
317.233131646
317.166207702
316.841173918
315.874143645
315.524168065
315.432884913
315.508227072
315.853525682
316.038160549
316.261237691
316.432694523
316.736978306
316.692366826
316.227813858
316.058994128
316.006855543
300.956959266
302.034757086
302.546657622
302.806643157
303.247125983
303.775722004
304.648616938
305.21007256
305.736854344
306.564534961
308.168330182
309.124342156
309.976325689
311.244661483
312.023401832
312.743881775
313.831019183
314.458158168
314.938813888
315.23568446
315.47848625
315.791056469
316.336343622
316.652411197
316.906248146
316.987029521
316.917633985
316.602190353
315.807531161
315.464255791
315.36439943
315.430933499
315.71444291
315.89677643
316.100953703
316.269796814
316.513774367
316.472646678
316.103397321
315.940636356
315.885105168
300.828320223
301.872858475
302.428780301
302.759940214
303.214890137
303.76179713
304.56577106
305.155782743
305.730419713
306.574737978
308.002251291
308.977570655
309.861352066
311.026730576
311.833086986
312.581222746
313.572657022
314.213719416
314.7008754
315.025515834
315.295486409
315.620122098
316.109463213
316.425856562
316.665496238
316.748129492
316.679679555
316.382362069
315.722841654
315.395388138
315.290521056
315.346674571
315.581270189
315.756310685
315.943877306
316.105748435
316.303606758
316.267004803
315.971546352
315.819172499
315.762503496
300.72717136
301.732430879
302.321038026
302.709380898
303.180380262
303.739463607
304.493461678
305.10386292
305.715318367
306.564826747
307.857695511
308.837303058
309.738253891
310.826273886
311.647777059
312.411799145
313.331213324
313.977793826
314.471472592
314.81936439
315.112185402
315.44480222
315.89174165
316.204355252
316.432765472
316.516677504
316.451857626
316.177313863
315.625151951
315.318596011
315.211669017
315.257179063
315.452547043
315.617375838
315.789864951
315.942327621
316.104660316
316.072975877
315.835100541
315.695303884
315.639247397
300.646829251
301.610670406
302.222630649
302.656775368
303.143881567
303.711284614
304.428972165
305.053857301
305.693022736
306.540448761
307.729176357
308.703261879
309.610968097
310.639749001
311.467701213
312.239296692
313.103745094
313.750575508
314.250180914
314.617505485
314.929425776
315.267298737
315.681812047
315.988412799
316.207759769
316.292787451
316.233617215
315.983974364
315.518232027
315.235010252
315.128388038
315.163770276
315.327304469
315.480388902
315.638915248
315.780781579
315.915527084
315.888750796
315.696161084
315.569754028
315.515601132
300.582368283
301.505028527
302.132808972
302.603456442
303.105818378
303.679111079
304.370354735
305.005406177
305.664892462
306.505723208
307.612796998
308.575140043
309.482262091
310.464660932
311.293028374
312.066363722
312.888183794
313.532045081
314.036686248
314.420193764
314.747990657
315.089295184
315.478784882
315.778344123
315.990268115
316.076483515
316.02441134
315.800191981
315.404914532
315.145773649
315.041294349
315.067491693
315.204921323
315.34564655
315.491105097
315.621985327
315.735115747
315.713000655
315.556296979
315.443228093
315.391876767
300.530133417
301.413243926
302.050866354
302.55039962
303.066663147
303.644294084
304.31621816
304.958244922
305.632139768
306.463679008
307.505794289
308.45263301
309.35407341
310.299250688
311.123883074
311.894904078
312.683069529
313.322067863
313.830751334
314.227665208
314.568590407
314.91209754
315.2820996
315.574345436
315.780134812
315.867731557
315.823733313
315.624465688
315.287355983
315.051989404
314.951037465
314.969191969
315.085023103
315.213372925
315.346551078
315.466553549
315.562581362
315.544749657
315.416692439
315.316390852
315.268417227
300.487393559
301.333342857
301.976137331
302.498311819
303.026883269
303.60783171
304.265575118
304.912194249
305.595822097
306.416563267
307.406213968
308.335457107
309.227751814
310.14227604
310.960356859
311.72628635
312.487366501
313.120454594
313.632193888
314.040137971
314.391859283
314.7367337
315.091421212
315.376540512
315.577240912
315.666461939
315.631133627
315.45575572
315.167221849
314.954693144
314.858273602
314.869582227
314.967410227
315.083749593
315.205386739
315.314919341
315.397270902
315.383282831
315.278252395
315.189856233
315.145582305
300.452093545
301.26362229
301.907998866
302.447697619
302.986912058
303.570470858
304.217731903
304.867146975
305.556849255
306.366059298
307.312679104
308.223358763
309.104231757
309.99285739
310.802516466
311.561493642
312.300334877
312.926997899
313.440872076
313.857812803
314.218357694
314.564024227
314.906568228
315.185010067
315.381492698
315.472585787
315.44622534
315.293349998
315.045818123
314.854839814
314.763647599
314.769274575
314.852006904
314.956933913
315.067749728
315.167389601
315.238681051
315.228078648
315.141678107
315.064183888
315.023737513
300.422675713
301.202624683
301.845872026
302.398909137
302.94713486
303.532778126
304.172208386
304.823054211
305.515997447
306.313441346
307.224224868
308.116117955
308.984155129
309.850369539
310.650409696
311.401230979
312.12144178
312.741493196
313.256674611
313.680873469
314.048577361
314.394633042
314.727462439
314.999810096
315.192814539
315.286006287
315.268682918
315.13676957
314.924185181
314.75329972
314.667781044
314.668807899
314.738824459
314.833069976
314.93377493
315.024183942
315.086425432
315.078759545
315.007521421
314.939879843
314.903245512
300.397950861
301.149109746
301.789223035
302.352183834
302.907884412
303.495189351
304.12867968
304.779912473
305.473925779
306.259684846
307.14018051
308.013548111
308.86795848
309.714365753
310.504069676
311.246002465
311.950299423
312.563749834
313.079513777
313.509487282
313.882947737
314.22910406
314.554093957
314.820983047
315.011144421
315.106626286
315.098237626
314.985701425
314.803165033
314.650859988
314.571264861
314.568665132
314.62793487
314.712294814
314.803591133
314.885461935
314.940209141
314.935055401
314.876223764
314.817399379
314.784459728
300.377004426
301.102026252
301.737563404
302.30767331
302.869441606
303.458044446
304.086933466
304.737752388
305.4311928
306.205545338
307.060084976
307.915494002
308.755934895
309.584524537
310.36351801
311.096166823
311.786622063
312.393596196
312.909320345
313.343805801
313.721842754
314.067887909
314.386496913
314.648564422
314.836431081
314.93435318
314.934671323
314.83995059
314.68344974
314.548229018
314.474655082
314.469284799
314.519451555
314.594741675
314.677319728
314.75134214
314.799808879
314.796776418
314.748144226
314.697150953
314.667719791
300.359127903
301.060485605
301.690449093
302.265465317
302.832039205
303.421612032
304.046838675
304.696629211
305.38827183
306.151615218
306.983626505
307.821828592
308.648277756
309.460612347
310.228767141
310.951977423
311.630196006
312.230881202
312.746039718
313.183965642
313.565587349
313.911361621
314.224732629
314.482586472
314.668632085
314.769101834
314.777809791
314.699405845
314.565616483
314.446042419
314.37847084
314.371068775
314.413515339
314.480541481
314.555074493
314.621915299
314.665057427
314.663792888
314.623579821
314.579500495
314.553348435
300.343768446
301.023737951
301.647478894
302.225600612
302.795866982
303.386107004
304.008322436
304.656615082
305.345564521
306.098364746
306.910599344
307.732449479
308.545111621
309.342457475
310.099822163
310.813611192
311.480858662
312.075473762
312.589628919
313.030089389
313.414463508
313.759843306
314.068877998
314.323080107
314.507712454
314.610796111
314.627516204
314.564015096
314.450153133
314.34486948
314.283193908
314.274387552
314.310284178
314.36982324
314.436961911
314.49725344
314.535831468
314.536020018
314.502780154
314.464775659
314.441649547
300.330491609
300.991151121
301.608292206
302.188085852
302.761077307
303.351703152
303.971353083
304.61779285
305.303412517
306.046171828
306.840872703
307.647275295
308.446513893
309.229931754
309.976682237
310.68118952
311.338483887
311.927261144
312.440054176
312.882286531
313.268715703
313.61360323
313.91901754
314.17007573
314.353643597
314.45936943
314.483685085
314.43376763
314.337477029
314.245219634
314.18926926
314.179583875
314.209925595
314.262713851
314.323081696
314.37741608
314.412042012
314.413406482
314.385958061
314.353269821
314.332907113
300.318953652
300.962192384
301.572566418
302.152903457
302.727790653
303.318542324
303.935927602
304.580251246
305.262107267
305.995343757
306.77436845
307.566242285
308.352529967
309.122937731
309.859341697
310.55479339
311.202971673
311.786146854
312.297288941
312.740654408
313.1285557
313.472872268
313.775238018
314.023603439
314.206402425
314.314764677
314.346236899
314.308681277
314.227948907
314.147548592
314.097106309
314.086975335
314.112611116
314.159337621
314.213527363
314.262454406
314.293626841
314.295925765
314.273297382
314.245245734
314.227384826
300.308880824
300.936412819
301.540014066
302.120019097
302.696100692
303.286741134
303.902062365
304.54408116
305.221898175
305.946133172
306.711045066
307.489301179
308.263183721
309.021399649
309.747790939
310.434474344
311.074240865
311.652048381
312.161312245
312.605279128
312.994166747
313.337848459
313.63762484
313.883692898
314.065970563
314.176933688
314.215113312
314.188793109
314.121883322
314.052264003
314.007080553
313.996856291
314.018512181
314.059815654
314.108386746
314.152414034
314.180544531
314.183569579
314.164958655
314.140938796
314.125326201
300.300053784
300.913434055
301.5103799
302.089387361
302.666078835
303.256395927
303.86978626
304.509372814
305.182999281
305.898749823
306.650886076
307.416414377
308.178484716
308.925257083
309.642017099
310.320262416
310.952223987
311.524894992
312.032107307
312.476236431
312.865707206
313.208702134
313.506259728
313.750373035
313.932333636
314.045836482
314.090273114
314.074152674
314.01955654
313.959730569
313.919535441
313.90949938
313.927797158
313.964265233
314.00774243
314.047336792
314.072769714
314.076342845
314.06108333
314.040559949
314.026955035
300.292295795
300.892937079
301.483437961
302.060955977
302.637778152
303.227586474
303.839135622
304.476213637
305.145594696
305.853369282
306.59389168
307.347553465
308.098433057
308.834460412
309.542004582
310.212171871
310.836863504
311.404625694
311.909660369
312.353592487
312.743313661
313.085579988
313.381219235
313.623671683
313.805480594
313.921440361
313.971688749
313.964817077
313.921212584
313.870274611
313.834784354
313.825156761
313.840629179
313.872799246
313.911672099
313.947261824
313.970289318
313.974259857
313.961796913
313.944298229
313.932476128
300.285463743
300.874652832
301.45898873
302.034668909
302.611236682
303.200378733
303.810150452
304.444686672
305.109842977
305.810139407
306.540072665
307.282697028
308.023022592
308.748967551
309.447735427
310.110205321
310.728109099
311.291187382
311.793959677
312.23740461
312.627103581
312.968608346
313.262573872
313.503615214
313.685403091
313.803718946
313.859343383
313.860847399
313.827067931
313.784188123
313.753112589
313.744061203
313.757164605
313.785525693
313.820248794
313.85222624
313.873099571
313.877341352
313.867211344
313.852323016
313.842076164
300.279441247
300.858354319
301.436856397
302.010468556
302.586480131
303.174826905
303.782871592
304.414869368
305.075880605
305.76918513
306.489445935
307.221828704
307.952242926
308.668741538
309.359189541
310.014356653
310.625915622
311.184533181
311.684994602
312.127721887
312.517177564
312.857895793
313.150387626
313.390228194
313.572094885
313.692651215
313.75322845
313.762306097
313.73731521
313.701732333
313.674779306
313.666427072
313.677551956
313.702547276
313.733541112
313.76226546
313.781203622
313.785612267
313.77742682
313.764785998
313.755924687
300.274133344
300.843849999
301.41688625
301.98829723
302.563524028
303.150974933
303.757338571
304.386832648
305.043824709
305.730611989
306.442031164
307.164935453
307.886080574
308.593748685
309.276344775
309.924613048
310.530241506
311.084620966
311.582754849
312.024585692
312.413621225
312.753535305
313.044717737
313.283533065
313.465551286
313.588220575
313.653341603
313.669255109
313.652126143
313.623140839
313.600019393
313.592451259
313.601931211
313.623961086
313.651613342
313.677413366
313.694609645
313.699100025
313.692533215
313.681822913
313.674175141
300.269462353
300.830978214
301.398942196
301.968098036
302.542375354
303.128857546
303.733587916
304.360640136
305.013775143
305.694508667
306.397848226
307.112005963
307.82451949
308.523957077
309.199176856
309.840956314
310.441047453
310.991412002
311.487229713
311.928030097
312.316506746
312.655605976
312.945614635
313.183549855
313.365768618
313.490413973
313.559685009
313.581754493
313.57165394
313.548622355
313.529045233
313.522314048
313.530433367
313.54985837
313.574525572
313.597702323
313.613329332
313.617833237
313.612611216
313.603555072
313.596965911
300.26536464
300.819602477
301.382904363
301.949815252
302.523033682
303.108500911
303.711651753
304.336347462
304.985815994
305.660948759
306.356915134
307.063029138
307.767541099
308.459335267
309.127659145
309.763363662
310.358295294
310.904869692
311.398407362
311.838082144
312.225894129
312.564174385
312.853121943
313.090295901
313.272743716
313.399221072
313.472263928
313.499861444
313.496035244
313.478363117
313.462048349
313.456179964
313.463180214
313.480324378
313.502333765
313.523163141
313.537376699
313.541840712
313.537733237
313.530090721
313.524421365
300.261788037
300.809607431
301.368666767
301.933394256
302.505491857
303.089922924
303.691556562
304.314001538
304.960016564
305.629991882
306.319246258
307.017992604
307.715123929
308.399851035
309.061762206
309.69180802
310.2819469
310.824958345
311.316274087
311.754761976
312.14183215
312.479295657
312.767276508
313.00378557
313.186473419
313.314633474
313.39108552
313.423629589
313.425391748
313.412528985
313.39920093
313.394198574
313.400284254
313.415438272
313.435089817
313.453824985
313.466767137
313.471150721
313.467964183
313.461526233
313.456652859
300.258689762
300.800895302
301.356134964
301.918781033
302.489736222
303.073133135
303.673321956
304.293639758
304.936431869
305.601684203
306.284850675
306.976881161
307.667242883
308.3454701
309.001453141
309.626257924
310.211963058
310.751641938
311.240813487
311.678082783
312.064359033
312.401014235
312.68810838
312.924029954
313.106954072
313.236643992
313.316157851
313.353108481
313.35983154
313.351267284
313.340657231
313.336505253
313.341848741
313.355273088
313.372841605
313.389715275
313.401516669
313.405790451
313.40336209
313.397947177
313.393759694
300.256034669
300.793382677
301.345223621
301.905921261
302.475746375
303.058132305
303.656959385
304.275288997
304.915102647
305.576058423
306.253730491
306.93967509
307.623868147
308.296154698
308.946694658
309.566677007
310.148302238
310.684882785
311.17200553
311.608050556
311.993502823
312.329364369
312.615640723
312.851036515
313.034181
313.165245944
313.247489026
313.288343234
313.299450233
313.294708401
313.286554852
313.283221918
313.287967789
313.299895743
313.315633032
313.330859587
313.341641359
313.345785598
313.343978675
313.339429264
313.335830024
300.253793709
300.786997433
301.335853892
301.894758932
302.463494442
303.044911549
303.642470634
304.258964348
304.89605484
305.553133212
306.225878995
306.906348243
307.584963704
308.251861907
308.897443798
309.513023064
310.090919157
310.624640048
311.109825431
311.544663575
311.929281455
312.264370306
312.549889583
312.784808651
312.968147945
313.100432474
313.185086439
313.229374242
313.244331912
313.242967185
313.237015889
313.234457707
313.238726545
313.249367071
313.263504062
313.277281547
313.287156849
313.29116008
313.289859811
313.286039188
313.282941696
300.25194247
300.781675606
301.32795049
301.885234483
302.45294381
303.033451001
303.629846013
304.244667475
304.87929851
305.532912042
306.201278505
306.87686577
307.550485394
308.212541621
308.853650245
309.465246644
310.039763036
310.570868005
311.054242271
311.487911609
311.871702468
312.20604617
312.490863493
312.725345144
312.908846435
313.04219585
313.128956088
313.176236956
313.194549918
313.19614415
313.192147976
313.190309622
313.194201385
313.203741885
313.21649075
313.229002743
313.238078005
313.24193584
313.241045948
313.237835374
313.235163029
300.250459628
300.777357957
301.321438268
301.877282322
302.44404725
303.023717917
303.619062091
304.232384457
304.864826099
305.515381348
306.179897757
306.851181389
307.520378406
308.178134039
308.815254109
309.423289092
309.994775465
310.523513959
311.005217273
311.43777473
311.820762328
312.15439548
312.438562835
312.672639444
312.856265044
312.990526733
313.079101919
313.128961687
313.150167503
313.15432651
313.152045204
313.150863114
313.154460129
313.163069039
313.174625273
313.186042638
313.194418622
313.198132698
313.197572473
313.194868632
313.192553515
300.249325144
300.773985926
301.316238135
301.870827655
302.436744322
303.015664086
303.610078827
304.222082981
304.852609888
305.500507882
306.161688647
306.829233995
307.494574077
308.148566502
308.782183047
309.387079915
309.955887703
310.482515674
310.962701612
311.394221669
311.77644528
312.109410252
312.392978912
312.626678752
312.810388525
312.945413375
313.035525178
313.08757339
313.111238353
313.117589068
313.116788934
313.116192609
313.119562251
313.127391504
313.137935938
313.148418485
313.156191208
313.159768263
313.159470034
313.157182736
313.155164456
300.24851795
300.771496569
301.312262046
301.865782455
302.430957919
303.00922241
303.6028359
304.213708677
304.842598515
305.488235095
306.146582119
306.810943421
307.472985795
308.123749489
308.754348526
309.356533328
309.923017272
310.447798167
310.926633627
311.357207576
311.738721636
312.071069602
312.354092644
312.587442808
312.771196734
312.906840705
312.998223724
313.05209143
313.077806994
313.085994954
313.086448502
313.086361985
313.089559076
313.096746421
313.106447183
313.11614524
313.123406788
313.126857864
313.126764807
313.124814924
313.123039518
300.248012776
300.769815906
301.309406763
301.862040398
302.426589765
303.004302417
303.597248003
304.207180363
304.834712291
305.478478305
306.134482923
306.796205084
307.455503765
308.103571508
308.731641012
309.331543737
309.896063619
310.41926966
310.896935254
311.326671047
311.707545366
312.039337743
312.321872777
312.554902329
312.738663306
312.87478926
312.967191255
313.02252928
313.049909081
313.059596236
313.061081814
313.061424963
313.06449394
313.071165129
313.08017954
313.089235463
313.096074738
313.099414495
313.099478728
313.097796317
313.09621521
300.247775606
300.768849944
301.30754605
301.859470531
302.423514624
303.000784461
303.593198802
304.202383897
304.828837029
305.471118346
306.125262911
306.784883161
307.441988306
308.087892567
308.713923765
309.311979902
309.874902557
310.396816432
310.873507437
311.302530201
311.682850823
312.014161211
312.296273481
312.529016951
312.712753978
312.849233883
312.942416424
312.998894133
313.02757156
313.038434387
313.040735829
313.04142543
313.044402298
313.050673142
313.059149546
313.067699169
313.07420261
313.077448745
313.077629654
313.076152249
313.074721268
300.247757042
300.768472326
301.306520867
301.85790941
302.421572885
302.998512246
303.590533176
304.199164228
304.824815979
305.465993276
306.118752419
306.776801878
307.432261251
308.076535792
308.701024825
309.297677374
309.859379142
310.380296228
310.856224222
311.284677541
311.664548352
311.995465133
312.277231144
312.509732562
312.693424444
312.830142109
312.923881744
312.981186377
313.010812695
313.022540616
313.025446912
313.026397636
313.029311734
313.035290029
313.043369561
313.051543612
313.057795899
313.060968678
313.061231447
313.059902483
313.058580926
300.247882564
300.768507226
301.306127097
301.857151383
302.420561123
302.997283219
303.589047258
304.197315158
304.82243936
305.46288762
306.114729196
306.771734322
307.42609489
308.069276635
308.69272668
309.288428713
309.849298477
310.369529782
310.844925122
311.27297323
311.652518473
311.983148216
312.264660116
312.496977762
312.680617557
312.817472084
312.911562197
312.969398859
312.999641888
313.011935997
313.015240993
313.016366224
313.019241794
313.025029119
313.032847402
313.040772901
313.046857684
313.049979586
313.050293891
313.049061249
313.047811011
300.248037993
300.768705328
301.306100193
301.856936695
302.420220095
302.996836253
303.588475632
304.196566146
304.821430786
305.461518421
306.112904107
306.769388034
307.423197691
308.065828936
308.688752862
309.283970786
309.844413811
310.364289838
310.839405176
311.267236261
311.646604148
311.977076068
312.258446997
312.490659149
312.674259603
312.811169797
312.905423346
312.963515775
312.994059188
313.006631293
313.010133425
313.011345927
313.014203488
313.019896846
313.027585632
313.035387278
313.041387962
313.044483448
313.044822322
313.043636946
313.042421737
)
;

boundaryField
{
    in
    {
        type            fixedValue;
        value           uniform 300;
    }
    out
    {
        type            zeroGradient;
    }
    top
    {
        type            zeroGradient;
    }
    bottom
    {
        type            fixedValue;
        value           nonuniform List<scalar> 
41
(
302.821956917
303.42985165
303.42985165
302.821956917
303.42985165
303.42985165
305.571141376
305.571141376
305.571141376
305.571141376
310.043349684
310.043349684
310.043349684
313.138831976
313.138831976
313.138831976
315.879961331
315.879961331
316.447021275
316.447021275
316.447021275
316.447021275
317.915716423
317.915716423
318.41084884
318.41084884
318.41084884
318.41084884
315.677449665
315.677449665
315.677449665
315.677449665
316.64379961
316.64379961
317.047740825
317.047740825
317.988194893
317.988194893
316.544008002
316.544008002
316.544008002
)
;
    }
    frontback
    {
        type            empty;
    }
}


// ************************************************************************* //
