/*--------------------------------*- C++ -*----------------------------------*\
| =========                 |                                                 |
| \\      /  F ield         | OpenFOAM: The Open Source CFD Toolbox           |
|  \\    /   O peration     | Version:  2112                                  |
|   \\  /    A nd           | Website:  www.openfoam.com                      |
|    \\/     M anipulation  |                                                 |
\*---------------------------------------------------------------------------*/
FoamFile
{
    version     2.0;
    format      ascii;
    arch        "LSB;label=32;scalar=64";
    class       polyBoundaryMesh;
    location    "constant/polyMesh";
    object      boundary;
}
// * * * * * * * * * * * * * * * * * * * * * * * * * * * * * * * * * * * * * //

5
(
    in
    {
        type            patch;
        nFaces          41;
        startFace       3280;
    }
    out
    {
        type            patch;
        nFaces          41;
        startFace       3321;
    }
    top
    {
        type            wall;
        inGroups        1(wall);
        nFaces          41;
        startFace       3362;
    }
    bottom
    {
        type            wall;
        inGroups        1(wall);
        nFaces          41;
        startFace       3403;
    }
    frontback
    {
        type            empty;
        inGroups        1(empty);
        nFaces          3362;
        startFace       3444;
    }
)

// ************************************************************************* //
