FoamFile
{
    version     2.0;
    format      ascii;
    class       volScalarField;
    object      JouleHeating;
}
// * * * * * * * * * * * * * * * * * * * * * * * * * * * * * * * * * * * * * //

dimensions      [0 0 -1 1 0 0 0];

internalField   uniform 0;

boundaryField
{
    "(inlet|outlet|top|bottom|right|left)"
    {
        type            calculated;
        value           uniform 0;
    }
}

// ************************************************************************* //
