/*--------------------------------*- C++ -*----------------------------------*\
| =========                 |                                                 |
| \\      /  F ield         | OpenFOAM: The Open Source CFD Toolbox           |
|  \\    /   O peration     | Version:  v2112                                 |
|   \\  /    A nd           | Website:  www.openfoam.com                      |
|    \\/     M anipulation  |                                                 |
\*---------------------------------------------------------------------------*/
FoamFile
{
    version     2.0;
    format      ascii;
    class       volScalarField;
    object      phiE;
}
// * * * * * * * * * * * * * * * * * * * * * * * * * * * * * * * * * * * * * //

dimensions      [1 2 -3 0 0 -1 0];

internalField   uniform 0.5;

boundaryField
{
    "(inlet|outlet)"
    {
        type            zeroGradient;
    }
    ext_walls
    {
	type		fixedValue;
	value		uniform 1;
    }
    "(top_int|bot_int|left_int|right_int)"
    {
        type            fixedGradient; //Value;
	gradient	uniform 0.1;
    }
}


// ************************************************************************* //
